Input Parameters:
   integrator                     = md
   tinit                          = 0
   dt                             = 0.002
   nsteps                         = -1
   init-step                      = 0
   simulation-part                = 1
   mts                            = false
   comm-mode                      = Linear
   nstcomm                        = 25
   bd-fric                        = 0
   ld-seed                        = -1266813457
   emtol                          = 10
   emstep                         = 0.01
   niter                          = 20
   fcstep                         = 0
   nstcgsteep                     = 1000
   nbfgscorr                      = 10
   rtpi                           = 0.05
   nstxout                        = 50000
   nstvout                        = 50000
   nstfout                        = 0
   nstlog                         = 10000
   nstcalcenergy                  = 25
   nstenergy                      = 5000
   nstxout-compressed             = 5000
   compressed-x-precision         = 1000
   cutoff-scheme                  = Verlet
   nstlist                        = 25
   pbc                            = xyz
   periodic-molecules             = false
   verlet-buffer-tolerance        = 0.001
   rlist                          = 1.293
   coulombtype                    = PME
   coulomb-modifier               = Potential-shift
   rcoulomb-switch                = 0
   rcoulomb                       = 1.2
   epsilon-r                      = 1
   epsilon-rf                     = 1
   vdw-type                       = Cut-off
   vdw-modifier                   = Potential-shift
   rvdw-switch                    = 0
   rvdw                           = 1.2
   DispCorr                       = EnerPres
   table-extension                = 1
   fourierspacing                 = 0.12
   fourier-nx                     = 72
   fourier-ny                     = 72
   fourier-nz                     = 72
   pme-order                      = 4
   ewald-rtol                     = 1e-05
   ewald-rtol-lj                  = 0.001
   lj-pme-comb-rule               = Geometric
   ewald-geometry                 = 3d
   epsilon-surface                = 0
   tcoupl                         = V-rescale
   nsttcouple                     = 10
   nh-chain-length                = 0
   print-nose-hoover-chain-variables = false
   pcoupl                         = Parrinello-Rahman
   pcoupltype                     = Isotropic
   nstpcouple                     = 10
   tau-p                          = 1
   compressibility (3x3):
      compressibility[    0]={ 4.50000e-05,  0.00000e+00,  0.00000e+00}
      compressibility[    1]={ 0.00000e+00,  4.50000e-05,  0.00000e+00}
      compressibility[    2]={ 0.00000e+00,  0.00000e+00,  4.50000e-05}
   ref-p (3x3):
      ref-p[    0]={ 1.00000e+00,  0.00000e+00,  0.00000e+00}
      ref-p[    1]={ 0.00000e+00,  1.00000e+00,  0.00000e+00}
      ref-p[    2]={ 0.00000e+00,  0.00000e+00,  1.00000e+00}
   refcoord-scaling               = No
   posres-com (3):
      posres-com[0]= 0.00000e+00
      posres-com[1]= 0.00000e+00
      posres-com[2]= 0.00000e+00
   posres-comB (3):
      posres-comB[0]= 0.00000e+00
      posres-comB[1]= 0.00000e+00
      posres-comB[2]= 0.00000e+00
   QMMM                           = false
qm-opts:
   ngQM                           = 0
   constraint-algorithm           = Lincs
   continuation                   = false
   Shake-SOR                      = false
   shake-tol                      = 0.0001
   lincs-order                    = 6
   lincs-iter                     = 2
   lincs-warnangle                = 30
   nwall                          = 0
   wall-type                      = 9-3
   wall-r-linpot                  = -1
   wall-atomtype[0]               = -1
   wall-atomtype[1]               = -1
   wall-density[0]                = 0
   wall-density[1]                = 0
   wall-ewald-zfac                = 3
   pull                           = false
   awh                            = false
   rotation                       = false
   interactiveMD                  = false
   disre                          = No
   disre-weighting                = Conservative
   disre-mixed                    = false
   dr-fc                          = 1000
   dr-tau                         = 0
   nstdisreout                    = 100
   orire-fc                       = 0
   orire-tau                      = 0
   nstorireout                    = 100
   free-energy                    = no
   cos-acceleration               = 0
   deform (3x3):
      deform[    0]={ 0.00000e+00,  0.00000e+00,  0.00000e+00}
      deform[    1]={ 0.00000e+00,  0.00000e+00,  0.00000e+00}
      deform[    2]={ 0.00000e+00,  0.00000e+00,  0.00000e+00}
   simulated-tempering            = false
   swapcoords                     = no
   userint1                       = 0
   userint2                       = 0
   userint3                       = 0
   userint4                       = 0
   userreal1                      = 0
   userreal2                      = 0
   userreal3                      = 0
   userreal4                      = 0
   applied-forces:
     electric-field:
       x:
         E0                       = 0
         omega                    = 0
         t0                       = 0
         sigma                    = 0
       y:
         E0                       = 0
         omega                    = 0
         t0                       = 0
         sigma                    = 0
       z:
         E0                       = 0
         omega                    = 0
         t0                       = 0
         sigma                    = 0
     density-guided-simulation:
       active                     = false
       group                      = protein
       similarity-measure         = inner-product
       atom-spreading-weight      = unity
       force-constant             = 1e+09
       gaussian-transform-spreading-width = 0.2
       gaussian-transform-spreading-range-in-multiples-of-width = 4
       reference-density-filename = reference.mrc
       nst                        = 1
       normalize-densities        = true
       adaptive-force-scaling     = false
       adaptive-force-scaling-time-constant = 4
       shift-vector               =
       transformation-matrix      =
     qmmm-cp2k:
       active                     = false
       qmgroup                    = System
       qmmethod                   = PBE
       qmfilenames                =
       qmcharge                   = 0
       qmmultiplicity             = 1
grpopts:
   nrdf:       71614
   ref-t:         278
   tau-t:         0.2
annealing:          No
annealing-npoints:           0
   acc:	           0           0           0
   nfreeze:           N           N           N
   energygrp-flags[  0]: 0

Changing nstlist from 25 to 40, rlist from 1.293 to 1.354

Initializing Domain Decomposition on 5 ranks
Dynamic load balancing: auto
Using update groups, nr 12023, average size 3.0 atoms, max. radius 0.139 nm
Minimum cell size due to atom displacement: 0.340 nm
Initial maximum distances in bonded interactions:
    two-body bonded interactions: 0.418 nm, LJ-14, atoms 521 529
  multi-body bonded interactions: 0.465 nm, CMAP Dih., atoms 550 559
Minimum cell size due to bonded interactions: 0.512 nm
Scaling the initial minimum size with 1/0.8 (option -dds) = 1.25
Using 0 separate PME ranks because: there are too few total ranks for efficient splitting
Optimizing the DD grid for 5 cells with a minimum initial size of 0.640 nm
The maximum allowed number of cells is: X 10 Y 10 Z 8
Domain decomposition grid 5 x 1 x 1, separate PME ranks 0
PME domain decomposition: 5 x 1 x 1
Domain decomposition rank 0, coordinates 0 0 0

The initial number of communication pulses is: X 2
The initial domain decomposition cell size is: X 1.30 nm

The maximum allowed distance for atom groups involved in interactions is:
                 non-bonded interactions           1.632 nm
(the following are initial values, they could change due to box deformation)
            two-body bonded interactions  (-rdd)   1.632 nm
          multi-body bonded interactions  (-rdd)   1.299 nm

When dynamic load balancing gets turned on, these settings will change to:
The maximum number of communication pulses is: X 2
The minimum size for domain decomposition cells is 0.905 nm
The requested allowed shrink of DD cells (option -dds) is: 0.80
The allowed shrink of domain decomposition cells is: X 0.70
The maximum allowed distance for atom groups involved in interactions is:
                 non-bonded interactions           1.632 nm
            two-body bonded interactions  (-rdd)   1.632 nm
          multi-body bonded interactions  (-rdd)   0.905 nm

This is simulation 30 out of 48 running as a composite GROMACS
multi-simulation job. Setup for this simulation:

Using 5 MPI processes

Non-default thread affinity set, disabling internal thread affinity

Using 1 OpenMP thread per MPI process

System total charge: -3.000
Will do PME sum in reciprocal space for electrostatic interactions.

Using a Gaussian width (1/beta) of 0.384195 nm for Ewald
Potential shift: LJ r^-12: -1.122e-01 r^-6: -3.349e-01, Ewald -8.333e-06
Initialized non-bonded Coulomb Ewald tables, spacing: 1.02e-03 size: 1176

Generated table with 4708 data points for 1-4 COUL.
Tabscale = 2000 points/nm
Generated table with 4708 data points for 1-4 LJ6.
Tabscale = 2000 points/nm
Generated table with 4708 data points for 1-4 LJ12.
Tabscale = 2000 points/nm
Long Range LJ corr.: <C6> 2.8709e-04

Using SIMD 4x8 nonbonded short-range kernels

Using a dual 4x8 pair-list setup updated with dynamic pruning:
  outer list: updated every 40 steps, buffer 0.154 nm, rlist 1.354 nm
  inner list: updated every  5 steps, buffer 0.002 nm, rlist 1.202 nm
At tolerance 0.001 kJ/mol/ps per atom, equivalent classical 1x1 list would be:
  outer list: updated every 40 steps, buffer 0.257 nm, rlist 1.457 nm
  inner list: updated every  5 steps, buffer 0.018 nm, rlist 1.218 nm

Using Lorentz-Berthelot Lennard-Jones combination rule
Removing pbc first time

Linking all bonded interactions to atoms

Initializing LINear Constraint Solver

The number of constraints is 308

Intra-simulation communication will occur every 5 steps.

There are: 35619 Atoms
Atom distribution over 5 domains: av 7123 stddev 130 min 7042 max 7231

Constraining the starting coordinates (step 0)

Constraining the coordinates at t0-dt (step 0)
Center of mass motion removal mode is Linear
We have the following groups for center of mass motion removal:
  0:  rest
RMS relative constraint deviation after constraining: 8.93e-09
Initial temperature: 278.11 K

PLUMED: PLUMED is starting
PLUMED: Version: 2.9.0 (git: 8e4baead8) compiled on Jul 17 2023 at 19:43:44
PLUMED: Please cite these papers when using PLUMED [1][2]
PLUMED: For further information see the PLUMED web page at http://www.plumed.org
PLUMED: Root: /home/zcbtar9/software/plumed/2.9.0/gnu-10.2.0/openblas/lib/plumed
PLUMED: For installed feature, see /home/zcbtar9/software/plumed/2.9.0/gnu-10.2.0/openblas/lib/plumed/src/config/config.txt
PLUMED: Molecular dynamics engine: gromacs
PLUMED: Precision of reals: 8
PLUMED: Running over 5 nodes
PLUMED: Number of threads: 1
PLUMED: Cache line size: 512
PLUMED: Number of atoms: 35619
PLUMED: GROMACS-like replica exchange is on
PLUMED: File suffix: .30
PLUMED: FILE: ../../../plumed/plumed.dat
PLUMED: Action MOLINFO
PLUMED:   with label @0
PLUMED:   pdb file named ../../../system/modified_template.pdb contains 1 chains
PLUMED:   chain named A contains residues 1 to 42 and atoms 1 to 627
PLUMED: Action WHOLEMOLECULES
PLUMED:   with label @1
PLUMED:   with stride 1
PLUMED:   atoms in entity 0 : 1 2 3 4 5 6 7 8 9 10 11 12 13 14 15 16 17 18 19 20 21 22 23 24 25 26 27 28 29 30 31 32 33 34 35 36 37 38 39 40 41 42 43 44 45 46 47 48 49 50 51 52 53 54 55 56 57 58 59 60 61 62 63 64 65 66 67 68 69 70 71 72 73 74 75 76 77 78 79 80 81 82 83 84 85 86 87 88 89 90 91 92 93 94 95 96 97 98 99 100 101 102 103 104 105 106 107 108 109 110 111 112 113 114 115 116 117 118 119 120 121 122 123 124 125 126 127 128 129 130 131 132 133 134 135 136 137 138 139 140 141 142 143 144 145 146 147 148 149 150 151 152 153 154 155 156 157 158 159 160 161 162 163 164 165 166 167 168 169 170 171 172 173 174 175 176 177 178 179 180 181 182 183 184 185 186 187 188 189 190 191 192 193 194 195 196 197 198 199 200 201 202 203 204 205 206 207 208 209 210 211 212 213 214 215 216 217 218 219 220 221 222 223 224 225 226 227 228 229 230 231 232 233 234 235 236 237 238 239 240 241 242 243 244 245 246 247 248 249 250 251 252 253 254 255 256 257 258 259 260 261 262 263 264 265 266 267 268 269 270 271 272 273 274 275 276 277 278 279 280 281 282 283 284 285 286 287 288 289 290 291 292 293 294 295 296 297 298 299 300 301 302 303 304 305 306 307 308 309 310 311 312 313 314 315 316 317 318 319 320 321 322 323 324 325 326 327 328 329 330 331 332 333 334 335 336 337 338 339 340 341 342 343 344 345 346 347 348 349 350 351 352 353 354 355 356 357 358 359 360 361 362 363 364 365 366 367 368 369 370 371 372 373 374 375 376 377 378 379 380 381 382 383 384 385 386 387 388 389 390 391 392 393 394 395 396 397 398 399 400 401 402 403 404 405 406 407 408 409 410 411 412 413 414 415 416 417 418 419 420 421 422 423 424 425 426 427 428 429 430 431 432 433 434 435 436 437 438 439 440 441 442 443 444 445 446 447 448 449 450 451 452 453 454 455 456 457 458 459 460 461 462 463 464 465 466 467 468 469 470 471 472 473 474 475 476 477 478 479 480 481 482 483 484 485 486 487 488 489 490 491 492 493 494 495 496 497 498 499 500 501 502 503 504 505 506 507 508 509 510 511 512 513 514 515 516 517 518 519 520 521 522 523 524 525 526 527 528 529 530 531 532 533 534 535 536 537 538 539 540 541 542 543 544 545 546 547 548 549 550 551 552 553 554 555 556 557 558 559 560 561 562 563 564 565 566 567 568 569 570 571 572 573 574 575 576 577 578 579 580 581 582 583 584 585 586 587 588 589 590 591 592 593 594 595 596 597 598 599 600 601 602 603 604 605 606 607 608 609 610 611 612 613 614 615 616 617 618 619 620 621 622 623 624 625 626 627
PLUMED: Action FLUSH
PLUMED:   with label @2
PLUMED:   with stride 1000
PLUMED: Action INCLUDE
PLUMED:   with label @3
PLUMED: FILE: ../../../plumed/CVs.dat
PLUMED: Action ALPHARMSD
PLUMED:   with label helix
PLUMED:   distances from secondary structure elements are calculated using DRMSD algorithm
PLUMED:   Bibliography [3]
PLUMED:   examining all possible secondary structure combinations
PLUMED: WARNING for action MOLINFO with label @0 : GLY residues are achiral - assuming HA1 atom is in CB position
PLUMED: WARNING for action MOLINFO with label @0 : GLY residues are achiral - assuming HA1 atom is in CB position
PLUMED: WARNING for action MOLINFO with label @0 : GLY residues are achiral - assuming HA1 atom is in CB position
PLUMED: WARNING for action MOLINFO with label @0 : GLY residues are achiral - assuming HA1 atom is in CB position
PLUMED: WARNING for action MOLINFO with label @0 : GLY residues are achiral - assuming HA1 atom is in CB position
PLUMED: WARNING for action MOLINFO with label @0 : GLY residues are achiral - assuming HA1 atom is in CB position
PLUMED:   added component to this action:  helix.lessthan
PLUMED:   value helix.lessthan is obtained by taking the 1th component and finding the number of values less than 0.08.  Using rational switching function with parameters d0=0 nn=8 mm=12
PLUMED: Action PARABETARMSD
PLUMED:   with label par
PLUMED:   distances from secondary structure elements are calculated using DRMSD algorithm
PLUMED:   Bibliography [3]
PLUMED:   ignoring contributions from strands that are more than 1.000000 apart
PLUMED:   examining all possible secondary structure combinations
PLUMED: WARNING for action MOLINFO with label @0 : GLY residues are achiral - assuming HA1 atom is in CB position
PLUMED: WARNING for action MOLINFO with label @0 : GLY residues are achiral - assuming HA1 atom is in CB position
PLUMED: WARNING for action MOLINFO with label @0 : GLY residues are achiral - assuming HA1 atom is in CB position
PLUMED: WARNING for action MOLINFO with label @0 : GLY residues are achiral - assuming HA1 atom is in CB position
PLUMED: WARNING for action MOLINFO with label @0 : GLY residues are achiral - assuming HA1 atom is in CB position
PLUMED: WARNING for action MOLINFO with label @0 : GLY residues are achiral - assuming HA1 atom is in CB position
PLUMED:   added component to this action:  par.lessthan
PLUMED:   value par.lessthan is obtained by taking the 1th component and finding the number of values less than 0.08.  Using rational switching function with parameters d0=0 nn=8 mm=12
PLUMED: Action ANTIBETARMSD
PLUMED:   with label anti
PLUMED:   distances from secondary structure elements are calculated using DRMSD algorithm
PLUMED:   Bibliography [3]
PLUMED:   ignoring contributions from strands that are more than 1.000000 apart
PLUMED:   examining all possible secondary structure combinations
PLUMED: WARNING for action MOLINFO with label @0 : GLY residues are achiral - assuming HA1 atom is in CB position
PLUMED: WARNING for action MOLINFO with label @0 : GLY residues are achiral - assuming HA1 atom is in CB position
PLUMED: WARNING for action MOLINFO with label @0 : GLY residues are achiral - assuming HA1 atom is in CB position
PLUMED: WARNING for action MOLINFO with label @0 : GLY residues are achiral - assuming HA1 atom is in CB position
PLUMED: WARNING for action MOLINFO with label @0 : GLY residues are achiral - assuming HA1 atom is in CB position
PLUMED: WARNING for action MOLINFO with label @0 : GLY residues are achiral - assuming HA1 atom is in CB position
PLUMED:   added component to this action:  anti.lessthan
PLUMED:   value anti.lessthan is obtained by taking the 1th component and finding the number of values less than 0.08.  Using rational switching function with parameters d0=0 nn=8 mm=12
PLUMED: Action COMBINE
PLUMED:   with label beta
PLUMED:   with arguments par.lessthan anti.lessthan
PLUMED:   with coefficients: 1.000000 1.000000
PLUMED:   with parameters: 0.000000 0.000000
PLUMED:   and powers: 1.000000 1.000000
PLUMED: Action GROUP
PLUMED:   with label ca
PLUMED:   list of atoms:
PLUMED:  5 17 27 42 62 86 103 115 126 133 154 169 185 202 219 236 258 277 293 313 333 343 358 370 386
PLUMED:  393 404 418 440 447 457 476 495 502 521 538 554 561 568 584 600 619
PLUMED: Action GYRATION
PLUMED:   with label rgyr
PLUMED:   GYRATION RADIUS (Rg);
PLUMED:   atoms involved : 5 17 27 42 62 86 103 115 126 133 154 169 185 202 219 236 258 277 293 313 333 343 358 370 386 393 404 418 440 447 457 476 495 502 521 538 554 561 568 584 600 619
PLUMED:   PBC will be ignored
PLUMED: Action COORDINATION
PLUMED:   with label hydro
PLUMED:   between two groups of 19 and 0 atoms
PLUMED:   first group:
PLUMED:   19  44  171  260  279  295  315  335  372  449  459  478  504  523  540  570  586  602  621
PLUMED:   second group:
PLUMED:
PLUMED:   without periodic boundary conditions
PLUMED:   using neighbor lists with
PLUMED:   update every 20 steps and cutoff 1.000000
PLUMED:   contacts are counted with cutoff 0.6.  Using rational switching function with parameters d0=0 nn=6 mm=12
PLUMED: Action COORDINATION
PLUMED:   with label salt
PLUMED:   between two groups of 18 and 15 atoms
PLUMED:   first group:
PLUMED:   10  11  12  35  36  37  108  109  110  162  163  164  351  352  353  363  364  365
PLUMED:   second group:
PLUMED:   75  76  77  78  79  80  81  250  251  252  253  432  433  434  435
PLUMED:   without periodic boundary conditions
PLUMED:   using neighbor lists with
PLUMED:   update every 20 steps and cutoff 1.000000
PLUMED:   contacts are counted with cutoff 0.6.  Using rational switching function with parameters d0=0 nn=6 mm=12
PLUMED: Action DIHCOR
PLUMED:   with label dihcor
PLUMED:   Colvar 1 is calculated from atoms : 1 5 13 15 15 17 23 25
PLUMED:   Colvar 2 is calculated from atoms : 15 17 23 25 25 27 38 40
PLUMED:   Colvar 3 is calculated from atoms : 25 27 38 40 40 42 58 60
PLUMED:   Colvar 4 is calculated from atoms : 40 42 58 60 60 62 82 84
PLUMED:   Colvar 5 is calculated from atoms : 60 62 82 84 84 86 99 101
PLUMED:   Colvar 6 is calculated from atoms : 84 86 99 101 101 103 111 113
PLUMED:   Colvar 7 is calculated from atoms : 101 103 111 113 113 115 122 124
PLUMED:   Colvar 8 is calculated from atoms : 113 115 122 124 124 126 129 131
PLUMED:   Colvar 9 is calculated from atoms : 124 126 129 131 131 133 150 152
PLUMED:   Colvar 10 is calculated from atoms : 131 133 150 152 152 154 165 167
PLUMED:   Colvar 11 is calculated from atoms : 152 154 165 167 167 169 181 183
PLUMED:   Colvar 12 is calculated from atoms : 167 169 181 183 183 185 198 200
PLUMED:   Colvar 13 is calculated from atoms : 183 185 198 200 200 202 215 217
PLUMED:   Colvar 14 is calculated from atoms : 200 202 215 217 217 219 232 234
PLUMED:   Colvar 15 is calculated from atoms : 217 219 232 234 234 236 254 256
PLUMED:   Colvar 16 is calculated from atoms : 234 236 254 256 256 258 273 275
PLUMED:   Colvar 17 is calculated from atoms : 256 258 273 275 275 277 289 291
PLUMED:   Colvar 18 is calculated from atoms : 275 277 289 291 291 293 309 311
PLUMED:   Colvar 19 is calculated from atoms : 291 293 309 311 311 313 329 331
PLUMED:   Colvar 20 is calculated from atoms : 311 313 329 331 331 333 339 341
PLUMED:   Colvar 21 is calculated from atoms : 331 333 339 341 341 343 354 356
PLUMED:   Colvar 22 is calculated from atoms : 341 343 354 356 356 358 366 368
PLUMED:   Colvar 23 is calculated from atoms : 356 358 366 368 368 370 382 384
PLUMED:   Colvar 24 is calculated from atoms : 368 370 382 384 384 386 389 391
PLUMED:   Colvar 25 is calculated from atoms : 384 386 389 391 391 393 400 402
PLUMED:   Colvar 26 is calculated from atoms : 391 393 400 402 402 404 414 416
PLUMED:   Colvar 27 is calculated from atoms : 402 404 414 416 416 418 436 438
PLUMED:   Colvar 28 is calculated from atoms : 416 418 436 438 438 440 443 445
PLUMED:   Colvar 29 is calculated from atoms : 438 440 443 445 445 447 453 455
PLUMED:   Colvar 30 is calculated from atoms : 445 447 453 455 455 457 472 474
PLUMED:   Colvar 31 is calculated from atoms : 455 457 472 474 474 476 491 493
PLUMED:   Colvar 32 is calculated from atoms : 474 476 491 493 493 495 498 500
PLUMED:   Colvar 33 is calculated from atoms : 493 495 498 500 500 502 517 519
PLUMED:   Colvar 34 is calculated from atoms : 500 502 517 519 519 521 534 536
PLUMED:   Colvar 35 is calculated from atoms : 519 521 534 536 536 538 550 552
PLUMED:   Colvar 36 is calculated from atoms : 536 538 550 552 552 554 557 559
PLUMED:   Colvar 37 is calculated from atoms : 552 554 557 559 559 561 564 566
PLUMED:   Colvar 38 is calculated from atoms : 559 561 564 566 566 568 580 582
PLUMED:   Colvar 39 is calculated from atoms : 566 568 580 582 582 584 596 598
PLUMED:   Colvar 40 is calculated from atoms : 582 584 596 598 598 600 615 617
PLUMED:   value dihcor contains the sum of all the values
PLUMED: END FILE: ../../../plumed/CVs.dat
PLUMED: Action PBMETAD
PLUMED:   with label pbmetad
PLUMED:   with arguments helix.lessthan beta rgyr hydro salt dihcor
PLUMED:   added component to this action:  pbmetad.bias
PLUMED:   The number of bins will be estimated from GRID_SPACING
PLUMED:   Gaussian width  0.640000 0.330000 0.030000 0.690000 2.750000 1.340000  Gaussian height 1.200000
PLUMED:   Gaussian deposition pace 500
PLUMED:   Gaussian files HILLS_helix HILLS_beta HILLS_rgyr HILLS_hydro HILLS_salt HILLS_dihcor
PLUMED:   Well-Tempered Bias Factor 24.000000
PLUMED:   Hills relaxation time (tau) 44.302228
PLUMED:   KbT 2.311421
PLUMED:   Multiple walkers active using MPI communnication
PLUMED:   directory with hills files ../production_run
PLUMED:   Grid min -1 -1 -1 -1 -1 -1
PLUMED:   Grid max 100 100 20 200 400 50
PLUMED:   Grid bin 1010 1010 2100 2010 4010 5100
PLUMED:   Grid uses spline interpolation
PLUMED:   Grid is written on file GRID.helix.lessthan with stride 10000
PLUMED:   Grid is written on file GRID.beta with stride 10000
PLUMED:   Grid is written on file GRID.rgyr with stride 10000
PLUMED:   Grid is written on file GRID.hydro with stride 10000
PLUMED:   Grid is written on file GRID.salt with stride 10000
PLUMED:   Grid is written on file GRID.dihcor with stride 10000
PLUMED:   Bibliography [4][5]
PLUMED: Action PRINT
PLUMED:   with label @14
PLUMED:   with stride 500
PLUMED:   with arguments helix.lessthan beta rgyr hydro salt dihcor pbmetad.bias
PLUMED:   on file COLVAR
PLUMED:   with format  %f
PLUMED: Action ENDPLUMED
PLUMED:   with label @15
PLUMED: END FILE: ../../../plumed/plumed.dat
PLUMED: Timestep: 0.002000
PLUMED: KbT: 2.311421
PLUMED: Relevant bibliography:
PLUMED:   [1] The PLUMED consortium, Nat. Methods 16, 670 (2019)
PLUMED:   [2] Tribello, Bonomi, Branduardi, Camilloni, and Bussi, Comput. Phys. Commun. 185, 604 (2014)
PLUMED:   [3] Pietrucci and Laio, J. Chem. Theory Comput. 5, 2197 (2009)
PLUMED:   [4] Pfaendtner and Bonomi. J. Chem. Theory Comput. 11, 5062 (2015)
PLUMED:   [5] Raiteri, Laio, Gervasio, Micheletti, and Parrinello, J. Phys. Chem. B 110, 3533 (2006)
PLUMED: Please read and cite where appropriate!
PLUMED: Finished setup
Started mdrun on rank 0 Thu Aug 24 19:07:13 2023

           Step           Time
              0        0.00000

   Energies (kJ/mol)
           Bond            U-B    Proper Dih.  Improper Dih.      CMAP Dih.
    5.48705e+02    1.33630e+03    2.46430e+02    9.02821e+01   -1.26465e+02
          LJ-14     Coulomb-14        LJ (SR)  Disper. corr.   Coulomb (SR)
    4.15005e+02    1.08900e+04    7.65795e+04   -2.48072e+03   -5.97011e+05
    1.47718e+03   -5.08035e+05    8.28583e+04   -4.25176e+05   -4.25155e+05
    Temperature Pres. DC (bar) Pressure (bar)   Constr. rmsd
    2.78313e+02   -1.15897e+02   -1.15875e+02    7.74439e-09

	<====  A V E R A G E S  ====>

	Statistics over 803441 steps using 32138 frames

   Energies (kJ/mol)
           Bond            U-B    Proper Dih.  Improper Dih.      CMAP Dih.
    4.75473e+02    1.30629e+03    2.43124e+02    8.21798e+01   -1.23367e+02
          LJ-14     Coulomb-14        LJ (SR)  Disper. corr.   Coulomb (SR)
    4.27669e+02    1.07812e+04    7.69758e+04   -2.49896e+03   -5.98082e+05
   Coul. recip.      Potential    Kinetic En.   Total Energy  Conserved En.
    1.51980e+03   -5.08892e+05    8.27654e+04   -4.26127e+05   -4.21376e+05
    Temperature Pres. DC (bar) Pressure (bar)   Constr. rmsd
    2.78001e+02   -1.17607e+02    1.08102e+00    0.00000e+00

          Box-X          Box-Y          Box-Z
    7.93349e+00    7.93349e+00    5.60982e+00

   Total Virial (kJ/mol)
    2.75944e+04   -1.48168e+00    3.28727e+00
   -1.34157e+01    2.75462e+04    2.00403e+00
    3.28727e+00    7.07176e+00    2.75949e+04

   Pressure (bar)
   -3.92211e-01    1.36593e-01   -5.35249e-01
    1.25914e+00    3.93011e+00    1.05347e-01
   -5.35249e-01   -3.71235e-01   -2.94845e-01
