Input Parameters:
   integrator                     = md
   tinit                          = 0
   dt                             = 0.002
   nsteps                         = -1
   init-step                      = 0
   simulation-part                = 1
   mts                            = false
   comm-mode                      = Linear
   nstcomm                        = 25
   bd-fric                        = 0
   ld-seed                        = -33646593
   emtol                          = 10
   emstep                         = 0.01
   niter                          = 20
   fcstep                         = 0
   nstcgsteep                     = 1000
   nbfgscorr                      = 10
   rtpi                           = 0.05
   nstxout                        = 50000
   nstvout                        = 50000
   nstfout                        = 0
   nstlog                         = 10000
   nstcalcenergy                  = 25
   nstenergy                      = 5000
   nstxout-compressed             = 5000
   compressed-x-precision         = 1000
   cutoff-scheme                  = Verlet
   nstlist                        = 25
   pbc                            = xyz
   periodic-molecules             = false
   verlet-buffer-tolerance        = 0.001
   rlist                          = 1.293
   coulombtype                    = PME
   coulomb-modifier               = Potential-shift
   rcoulomb-switch                = 0
   rcoulomb                       = 1.2
   epsilon-r                      = 1
   epsilon-rf                     = 1
   vdw-type                       = Cut-off
   vdw-modifier                   = Potential-shift
   rvdw-switch                    = 0
   rvdw                           = 1.2
   DispCorr                       = EnerPres
   table-extension                = 1
   fourierspacing                 = 0.12
   fourier-nx                     = 72
   fourier-ny                     = 72
   fourier-nz                     = 72
   pme-order                      = 4
   ewald-rtol                     = 1e-05
   ewald-rtol-lj                  = 0.001
   lj-pme-comb-rule               = Geometric
   ewald-geometry                 = 3d
   epsilon-surface                = 0
   tcoupl                         = V-rescale
   nsttcouple                     = 10
   nh-chain-length                = 0
   print-nose-hoover-chain-variables = false
   pcoupl                         = Parrinello-Rahman
   pcoupltype                     = Isotropic
   nstpcouple                     = 10
   tau-p                          = 1
   compressibility (3x3):
      compressibility[    0]={ 4.50000e-05,  0.00000e+00,  0.00000e+00}
      compressibility[    1]={ 0.00000e+00,  4.50000e-05,  0.00000e+00}
      compressibility[    2]={ 0.00000e+00,  0.00000e+00,  4.50000e-05}
   ref-p (3x3):
      ref-p[    0]={ 1.00000e+00,  0.00000e+00,  0.00000e+00}
      ref-p[    1]={ 0.00000e+00,  1.00000e+00,  0.00000e+00}
      ref-p[    2]={ 0.00000e+00,  0.00000e+00,  1.00000e+00}
   refcoord-scaling               = No
   posres-com (3):
      posres-com[0]= 0.00000e+00
      posres-com[1]= 0.00000e+00
      posres-com[2]= 0.00000e+00
   posres-comB (3):
      posres-comB[0]= 0.00000e+00
      posres-comB[1]= 0.00000e+00
      posres-comB[2]= 0.00000e+00
   QMMM                           = false
qm-opts:
   ngQM                           = 0
   constraint-algorithm           = Lincs
   continuation                   = false
   Shake-SOR                      = false
   shake-tol                      = 0.0001
   lincs-order                    = 6
   lincs-iter                     = 2
   lincs-warnangle                = 30
   nwall                          = 0
   wall-type                      = 9-3
   wall-r-linpot                  = -1
   wall-atomtype[0]               = -1
   wall-atomtype[1]               = -1
   wall-density[0]                = 0
   wall-density[1]                = 0
   wall-ewald-zfac                = 3
   pull                           = false
   awh                            = false
   rotation                       = false
   interactiveMD                  = false
   disre                          = No
   disre-weighting                = Conservative
   disre-mixed                    = false
   dr-fc                          = 1000
   dr-tau                         = 0
   nstdisreout                    = 100
   orire-fc                       = 0
   orire-tau                      = 0
   nstorireout                    = 100
   free-energy                    = no
   cos-acceleration               = 0
   deform (3x3):
      deform[    0]={ 0.00000e+00,  0.00000e+00,  0.00000e+00}
      deform[    1]={ 0.00000e+00,  0.00000e+00,  0.00000e+00}
      deform[    2]={ 0.00000e+00,  0.00000e+00,  0.00000e+00}
   simulated-tempering            = false
   swapcoords                     = no
   userint1                       = 0
   userint2                       = 0
   userint3                       = 0
   userint4                       = 0
   userreal1                      = 0
   userreal2                      = 0
   userreal3                      = 0
   userreal4                      = 0
   applied-forces:
     electric-field:
       x:
         E0                       = 0
         omega                    = 0
         t0                       = 0
         sigma                    = 0
       y:
         E0                       = 0
         omega                    = 0
         t0                       = 0
         sigma                    = 0
       z:
         E0                       = 0
         omega                    = 0
         t0                       = 0
         sigma                    = 0
     density-guided-simulation:
       active                     = false
       group                      = protein
       similarity-measure         = inner-product
       atom-spreading-weight      = unity
       force-constant             = 1e+09
       gaussian-transform-spreading-width = 0.2
       gaussian-transform-spreading-range-in-multiples-of-width = 4
       reference-density-filename = reference.mrc
       nst                        = 1
       normalize-densities        = true
       adaptive-force-scaling     = false
       adaptive-force-scaling-time-constant = 4
       shift-vector               =
       transformation-matrix      =
     qmmm-cp2k:
       active                     = false
       qmgroup                    = System
       qmmethod                   = PBE
       qmfilenames                =
       qmcharge                   = 0
       qmmultiplicity             = 1
grpopts:
   nrdf:       71785
   ref-t:         278
   tau-t:         0.2
annealing:          No
annealing-npoints:           0
   acc:	           0           0           0
   nfreeze:           N           N           N
   energygrp-flags[  0]: 0

Reading checkpoint file state_step1677640.cpt
  file generated by:     /home/zcbtar9/software/gromacs-2022.5-plumed-2.9.0/bin/gmx_mpi_d
  file generated at:     Wed Jul 26 13:41:28 2023

  GROMACS double prec.:  1
  simulation part #:     1
  step:                  1677640
  time:                  3355.280000

Changing nstlist from 25 to 40, rlist from 1.293 to 1.354

Initializing Domain Decomposition on 5 ranks
Dynamic load balancing: auto
Using update groups, nr 12023, average size 3.0 atoms, max. radius 0.139 nm
Minimum cell size due to atom displacement: 0.340 nm
Initial maximum distances in bonded interactions:
    two-body bonded interactions: 0.408 nm, LJ-14, atoms 502 509
  multi-body bonded interactions: 0.408 nm, Proper Dih., atoms 502 509
Minimum cell size due to bonded interactions: 0.449 nm
Scaling the initial minimum size with 1/0.8 (option -dds) = 1.25
Using 1 separate PME ranks, as requested with -npme option
Optimizing the DD grid for 4 cells with a minimum initial size of 0.561 nm
The maximum allowed number of cells is: X 11 Y 11 Z 10
Domain decomposition grid 4 x 1 x 1, separate PME ranks 1
PME domain decomposition: 1 x 1 x 1
Interleaving PP and PME ranks
This rank does only particle-particle work.
Domain decomposition rank 0, coordinates 0 0 0

The initial number of communication pulses is: X 2
The initial domain decomposition cell size is: X 1.62 nm

The maximum allowed distance for atom groups involved in interactions is:
                 non-bonded interactions           1.632 nm
(the following are initial values, they could change due to box deformation)
            two-body bonded interactions  (-rdd)   1.632 nm
          multi-body bonded interactions  (-rdd)   1.623 nm

When dynamic load balancing gets turned on, these settings will change to:
The maximum number of communication pulses is: X 2
The minimum size for domain decomposition cells is 1.036 nm
The requested allowed shrink of DD cells (option -dds) is: 0.80
The allowed shrink of domain decomposition cells is: X 0.64
The maximum allowed distance for atom groups involved in interactions is:
                 non-bonded interactions           1.632 nm
            two-body bonded interactions  (-rdd)   1.632 nm
          multi-body bonded interactions  (-rdd)   1.036 nm

This is simulation 12 out of 48 running as a composite GROMACS
multi-simulation job. Setup for this simulation:

Using 5 MPI processes

Non-default thread affinity set, disabling internal thread affinity

Using 1 OpenMP thread per MPI process

System total charge: 0.000
Will do PME sum in reciprocal space for electrostatic interactions.

Using a Gaussian width (1/beta) of 0.384195 nm for Ewald
Potential shift: LJ r^-12: -1.122e-01 r^-6: -3.349e-01, Ewald -8.333e-06
Initialized non-bonded Coulomb Ewald tables, spacing: 1.02e-03 size: 1176

Generated table with 4708 data points for 1-4 COUL.
Tabscale = 2000 points/nm
Generated table with 4708 data points for 1-4 LJ6.
Tabscale = 2000 points/nm
Generated table with 4708 data points for 1-4 LJ12.
Tabscale = 2000 points/nm
Long Range LJ corr.: <C6> 2.8448e-04

Using SIMD 4x8 nonbonded short-range kernels

Using a dual 4x8 pair-list setup updated with dynamic pruning:
  outer list: updated every 40 steps, buffer 0.154 nm, rlist 1.354 nm
  inner list: updated every  5 steps, buffer 0.002 nm, rlist 1.202 nm
At tolerance 0.001 kJ/mol/ps per atom, equivalent classical 1x1 list would be:
  outer list: updated every 40 steps, buffer 0.257 nm, rlist 1.457 nm
  inner list: updated every  5 steps, buffer 0.018 nm, rlist 1.218 nm

Using Lorentz-Berthelot Lennard-Jones combination rule

Linking all bonded interactions to atoms

Initializing LINear Constraint Solver

The number of constraints is 308

Intra-simulation communication will occur every 5 steps.

There are: 35733 Atoms
Atom distribution over 4 domains: av 8933 stddev 79 min 8893 max 9001
Center of mass motion removal mode is Linear
We have the following groups for center of mass motion removal:
  0:  rest

PLUMED: PLUMED is starting
PLUMED: Version: 2.9.0 (git: 8e4baead8) compiled on Jul 17 2023 at 19:43:44
PLUMED: Please cite these papers when using PLUMED [1][2]
PLUMED: For further information see the PLUMED web page at http://www.plumed.org
PLUMED: Root: /home/zcbtar9/software/plumed/2.9.0/gnu-10.2.0/openblas/lib/plumed
PLUMED: For installed feature, see /home/zcbtar9/software/plumed/2.9.0/gnu-10.2.0/openblas/lib/plumed/src/config/config.txt
PLUMED: Molecular dynamics engine: gromacs
PLUMED: Precision of reals: 8
PLUMED: Running over 4 nodes
PLUMED: Number of threads: 1
PLUMED: Cache line size: 512
PLUMED: Number of atoms: 35733
PLUMED: GROMACS-like replica exchange is on
PLUMED: File suffix: .12
PLUMED: FILE: ../../../plumed/plumed.dat
PLUMED: Action MOLINFO
PLUMED:   with label @0
PLUMED:   pdb file named ../../../system/template.pdb contains 1 chains
PLUMED:   chain named A contains residues 1 to 42 and atoms 1 to 627
PLUMED: Action WHOLEMOLECULES
PLUMED:   with label @1
PLUMED:   with stride 1
PLUMED:   atoms in entity 0 : 1 2 3 4 5 6 7 8 9 10 11 12 13 14 15 16 17 18 19 20 21 22 23 24 25 26 27 28 29 30 31 32 33 34 35 36 37 38 39 40 41 42 43 44 45 46 47 48 49 50 51 52 53 54 55 56 57 58 59 60 61 62 63 64 65 66 67 68 69 70 71 72 73 74 75 76 77 78 79 80 81 82 83 84 85 86 87 88 89 90 91 92 93 94 95 96 97 98 99 100 101 102 103 104 105 106 107 108 109 110 111 112 113 114 115 116 117 118 119 120 121 122 123 124 125 126 127 128 129 130 131 132 133 134 135 136 137 138 139 140 141 142 143 144 145 146 147 148 149 150 151 152 153 154 155 156 157 158 159 160 161 162 163 164 165 166 167 168 169 170 171 172 173 174 175 176 177 178 179 180 181 182 183 184 185 186 187 188 189 190 191 192 193 194 195 196 197 198 199 200 201 202 203 204 205 206 207 208 209 210 211 212 213 214 215 216 217 218 219 220 221 222 223 224 225 226 227 228 229 230 231 232 233 234 235 236 237 238 239 240 241 242 243 244 245 246 247 248 249 250 251 252 253 254 255 256 257 258 259 260 261 262 263 264 265 266 267 268 269 270 271 272 273 274 275 276 277 278 279 280 281 282 283 284 285 286 287 288 289 290 291 292 293 294 295 296 297 298 299 300 301 302 303 304 305 306 307 308 309 310 311 312 313 314 315 316 317 318 319 320 321 322 323 324 325 326 327 328 329 330 331 332 333 334 335 336 337 338 339 340 341 342 343 344 345 346 347 348 349 350 351 352 353 354 355 356 357 358 359 360 361 362 363 364 365 366 367 368 369 370 371 372 373 374 375 376 377 378 379 380 381 382 383 384 385 386 387 388 389 390 391 392 393 394 395 396 397 398 399 400 401 402 403 404 405 406 407 408 409 410 411 412 413 414 415 416 417 418 419 420 421 422 423 424 425 426 427 428 429 430 431 432 433 434 435 436 437 438 439 440 441 442 443 444 445 446 447 448 449 450 451 452 453 454 455 456 457 458 459 460 461 462 463 464 465 466 467 468 469 470 471 472 473 474 475 476 477 478 479 480 481 482 483 484 485 486 487 488 489 490 491 492 493 494 495 496 497 498 499 500 501 502 503 504 505 506 507 508 509 510 511 512 513 514 515 516 517 518 519 520 521 522 523 524 525 526 527 528 529 530 531 532 533 534 535 536 537 538 539 540 541 542 543 544 545 546 547 548 549 550 551 552 553 554 555 556 557 558 559 560 561 562 563 564 565 566 567 568 569 570 571 572 573 574 575 576 577 578 579 580 581 582 583 584 585 586 587 588 589 590 591 592 593 594 595 596 597 598 599 600 601 602 603 604 605 606 607 608 609 610 611 612 613 614 615 616 617 618 619 620 621 622 623 624 625 626 627
PLUMED: Action FLUSH
PLUMED:   with label @2
PLUMED:   with stride 1000
PLUMED: Action INCLUDE
PLUMED:   with label @3
PLUMED: FILE: ../../../plumed/CVs.dat
PLUMED: Action ALPHARMSD
PLUMED:   with label helix
PLUMED:   distances from secondary structure elements are calculated using DRMSD algorithm
PLUMED:   Bibliography [3]
PLUMED:   examining all possible secondary structure combinations
PLUMED: WARNING for action MOLINFO with label @0 : GLY residues are achiral - assuming HA1 atom is in CB position
PLUMED: WARNING for action MOLINFO with label @0 : GLY residues are achiral - assuming HA1 atom is in CB position
PLUMED: WARNING for action MOLINFO with label @0 : GLY residues are achiral - assuming HA1 atom is in CB position
PLUMED: WARNING for action MOLINFO with label @0 : GLY residues are achiral - assuming HA1 atom is in CB position
PLUMED: WARNING for action MOLINFO with label @0 : GLY residues are achiral - assuming HA1 atom is in CB position
PLUMED: WARNING for action MOLINFO with label @0 : GLY residues are achiral - assuming HA1 atom is in CB position
PLUMED:   added component to this action:  helix.lessthan
PLUMED:   value helix.lessthan is obtained by taking the 1th component and finding the number of values less than 0.08.  Using rational switching function with parameters d0=0 nn=8 mm=12
PLUMED: Action PARABETARMSD
PLUMED:   with label par
PLUMED:   distances from secondary structure elements are calculated using DRMSD algorithm
PLUMED:   Bibliography [3]
PLUMED:   examining all possible secondary structure combinations
PLUMED: WARNING for action MOLINFO with label @0 : GLY residues are achiral - assuming HA1 atom is in CB position
PLUMED: WARNING for action MOLINFO with label @0 : GLY residues are achiral - assuming HA1 atom is in CB position
PLUMED: WARNING for action MOLINFO with label @0 : GLY residues are achiral - assuming HA1 atom is in CB position
PLUMED: WARNING for action MOLINFO with label @0 : GLY residues are achiral - assuming HA1 atom is in CB position
PLUMED: WARNING for action MOLINFO with label @0 : GLY residues are achiral - assuming HA1 atom is in CB position
PLUMED: WARNING for action MOLINFO with label @0 : GLY residues are achiral - assuming HA1 atom is in CB position
PLUMED:   added component to this action:  par.lessthan
PLUMED:   value par.lessthan is obtained by taking the 1th component and finding the number of values less than 0.08.  Using rational switching function with parameters d0=0 nn=8 mm=12
PLUMED: Action ANTIBETARMSD
PLUMED:   with label anti
PLUMED:   distances from secondary structure elements are calculated using DRMSD algorithm
PLUMED:   Bibliography [3]
PLUMED:   examining all possible secondary structure combinations
PLUMED: WARNING for action MOLINFO with label @0 : GLY residues are achiral - assuming HA1 atom is in CB position
PLUMED: WARNING for action MOLINFO with label @0 : GLY residues are achiral - assuming HA1 atom is in CB position
PLUMED: WARNING for action MOLINFO with label @0 : GLY residues are achiral - assuming HA1 atom is in CB position
PLUMED: WARNING for action MOLINFO with label @0 : GLY residues are achiral - assuming HA1 atom is in CB position
PLUMED: WARNING for action MOLINFO with label @0 : GLY residues are achiral - assuming HA1 atom is in CB position
PLUMED: WARNING for action MOLINFO with label @0 : GLY residues are achiral - assuming HA1 atom is in CB position
PLUMED:   added component to this action:  anti.lessthan
PLUMED:   value anti.lessthan is obtained by taking the 1th component and finding the number of values less than 0.08.  Using rational switching function with parameters d0=0 nn=8 mm=12
PLUMED: Action COMBINE
PLUMED:   with label beta
PLUMED:   with arguments par.lessthan anti.lessthan
PLUMED:   with coefficients: 1.000000 1.000000
PLUMED:   with parameters: 0.000000 0.000000
PLUMED:   and powers: 1.000000 1.000000
PLUMED: Action GROUP
PLUMED:   with label ca
PLUMED:   list of atoms:
PLUMED:  5 17 27 42 62 86 103 115 126 133 154 169 185 202 219 236 258 277 293 313 333 343 358 370 386
PLUMED:  393 404 418 440 447 457 476 495 502 521 538 554 561 568 584 600 619
PLUMED: Action GYRATION
PLUMED:   with label rgyr
PLUMED:   GYRATION RADIUS (Rg);
PLUMED:   atoms involved : 5 17 27 42 62 86 103 115 126 133 154 169 185 202 219 236 258 277 293 313 333 343 358 370 386 393 404 418 440 447 457 476 495 502 521 538 554 561 568 584 600 619
PLUMED:   PBC will be ignored
PLUMED: Action COORDINATION
PLUMED:   with label hydro
PLUMED:   between two groups of 19 and 0 atoms
PLUMED:   first group:
PLUMED:   19  44  171  260  279  295  315  335  372  449  459  478  504  523  540  570  586  602  621
PLUMED:   second group:
PLUMED:
PLUMED:   without periodic boundary conditions
PLUMED:   using neighbor lists with
PLUMED:   update every 20 steps and cutoff 1.000000
PLUMED:   contacts are counted with cutoff 0.6.  Using rational switching function with parameters d0=0 nn=6 mm=12
PLUMED: Action COORDINATION
PLUMED:   with label salt
PLUMED:   between two groups of 18 and 15 atoms
PLUMED:   first group:
PLUMED:   10  11  12  35  36  37  108  109  110  162  163  164  351  352  353  363  364  365
PLUMED:   second group:
PLUMED:   75  76  77  78  79  80  81  250  251  252  253  432  433  434  435
PLUMED:   without periodic boundary conditions
PLUMED:   using neighbor lists with
PLUMED:   update every 20 steps and cutoff 1.000000
PLUMED:   contacts are counted with cutoff 0.6.  Using rational switching function with parameters d0=0 nn=6 mm=12
PLUMED: Action DIHCOR
PLUMED:   with label dihcor
PLUMED:   Colvar 1 is calculated from atoms : 1 5 13 15 15 17 23 25
PLUMED:   Colvar 2 is calculated from atoms : 15 17 23 25 25 27 38 40
PLUMED:   Colvar 3 is calculated from atoms : 25 27 38 40 40 42 58 60
PLUMED:   Colvar 4 is calculated from atoms : 40 42 58 60 60 62 82 84
PLUMED:   Colvar 5 is calculated from atoms : 60 62 82 84 84 86 99 101
PLUMED:   Colvar 6 is calculated from atoms : 84 86 99 101 101 103 111 113
PLUMED:   Colvar 7 is calculated from atoms : 101 103 111 113 113 115 122 124
PLUMED:   Colvar 8 is calculated from atoms : 113 115 122 124 124 126 129 131
PLUMED:   Colvar 9 is calculated from atoms : 124 126 129 131 131 133 150 152
PLUMED:   Colvar 10 is calculated from atoms : 131 133 150 152 152 154 165 167
PLUMED:   Colvar 11 is calculated from atoms : 152 154 165 167 167 169 181 183
PLUMED:   Colvar 12 is calculated from atoms : 167 169 181 183 183 185 198 200
PLUMED:   Colvar 13 is calculated from atoms : 183 185 198 200 200 202 215 217
PLUMED:   Colvar 14 is calculated from atoms : 200 202 215 217 217 219 232 234
PLUMED:   Colvar 15 is calculated from atoms : 217 219 232 234 234 236 254 256
PLUMED:   Colvar 16 is calculated from atoms : 234 236 254 256 256 258 273 275
PLUMED:   Colvar 17 is calculated from atoms : 256 258 273 275 275 277 289 291
PLUMED:   Colvar 18 is calculated from atoms : 275 277 289 291 291 293 309 311
PLUMED:   Colvar 19 is calculated from atoms : 291 293 309 311 311 313 329 331
PLUMED:   Colvar 20 is calculated from atoms : 311 313 329 331 331 333 339 341
PLUMED:   Colvar 21 is calculated from atoms : 331 333 339 341 341 343 354 356
PLUMED:   Colvar 22 is calculated from atoms : 341 343 354 356 356 358 366 368
PLUMED:   Colvar 23 is calculated from atoms : 356 358 366 368 368 370 382 384
PLUMED:   Colvar 24 is calculated from atoms : 368 370 382 384 384 386 389 391
PLUMED:   Colvar 25 is calculated from atoms : 384 386 389 391 391 393 400 402
PLUMED:   Colvar 26 is calculated from atoms : 391 393 400 402 402 404 414 416
PLUMED:   Colvar 27 is calculated from atoms : 402 404 414 416 416 418 436 438
PLUMED:   Colvar 28 is calculated from atoms : 416 418 436 438 438 440 443 445
PLUMED:   Colvar 29 is calculated from atoms : 438 440 443 445 445 447 453 455
PLUMED:   Colvar 30 is calculated from atoms : 445 447 453 455 455 457 472 474
PLUMED:   Colvar 31 is calculated from atoms : 455 457 472 474 474 476 491 493
PLUMED:   Colvar 32 is calculated from atoms : 474 476 491 493 493 495 498 500
PLUMED:   Colvar 33 is calculated from atoms : 493 495 498 500 500 502 517 519
PLUMED:   Colvar 34 is calculated from atoms : 500 502 517 519 519 521 534 536
PLUMED:   Colvar 35 is calculated from atoms : 519 521 534 536 536 538 550 552
PLUMED:   Colvar 36 is calculated from atoms : 536 538 550 552 552 554 557 559
PLUMED:   Colvar 37 is calculated from atoms : 552 554 557 559 559 561 564 566
PLUMED:   Colvar 38 is calculated from atoms : 559 561 564 566 566 568 580 582
PLUMED:   Colvar 39 is calculated from atoms : 566 568 580 582 582 584 596 598
PLUMED:   Colvar 40 is calculated from atoms : 582 584 596 598 598 600 615 617
PLUMED:   value dihcor contains the sum of all the values
PLUMED: END FILE: ../../../plumed/CVs.dat
PLUMED: Action CS2BACKBONE
PLUMED:   with label cs
PLUMED:   Initialization of the predictor ...
PLUMED:   Reading experimental data ...
PLUMED:   Initializing CA shifts ../../../data/CAshifts.dat
PLUMED:   Initializing CB shifts ../../../data/CBshifts.dat
PLUMED:   Initializing C' shifts ../../../data/Cshifts.dat
PLUMED:   Initializing HA shifts ../../../data/HAshifts.dat
PLUMED:   Initializing H shifts ../../../data/Hshifts.dat
PLUMED:   Initializing N shifts ../../../data/Nshifts.dat
PLUMED:   Bibliography [4][5][6]
PLUMED:   added component to this action:  cs.ca-0-2
PLUMED:   added component to this action:  cs.ca-0-3
PLUMED:   added component to this action:  cs.ca-0-4
PLUMED:   added component to this action:  cs.ca-0-5
PLUMED:   added component to this action:  cs.ca-0-7
PLUMED:   added component to this action:  cs.ca-0-8
PLUMED:   added component to this action:  cs.ca-0-9
PLUMED:   added component to this action:  cs.ca-0-10
PLUMED:   added component to this action:  cs.ca-0-11
PLUMED:   added component to this action:  cs.ca-0-12
PLUMED:   added component to this action:  cs.ca-0-15
PLUMED:   added component to this action:  cs.ca-0-16
PLUMED:   added component to this action:  cs.ca-0-17
PLUMED:   added component to this action:  cs.ca-0-18
PLUMED:   added component to this action:  cs.ca-0-19
PLUMED:   added component to this action:  cs.ca-0-20
PLUMED:   added component to this action:  cs.ca-0-21
PLUMED:   added component to this action:  cs.ca-0-22
PLUMED:   added component to this action:  cs.ca-0-23
PLUMED:   added component to this action:  cs.ca-0-24
PLUMED:   added component to this action:  cs.ca-0-25
PLUMED:   added component to this action:  cs.ca-0-26
PLUMED:   added component to this action:  cs.ca-0-27
PLUMED:   added component to this action:  cs.ca-0-28
PLUMED:   added component to this action:  cs.ca-0-29
PLUMED:   added component to this action:  cs.ca-0-30
PLUMED:   added component to this action:  cs.ca-0-31
PLUMED:   added component to this action:  cs.ca-0-32
PLUMED:   added component to this action:  cs.ca-0-33
PLUMED:   added component to this action:  cs.ca-0-34
PLUMED:   added component to this action:  cs.ca-0-35
PLUMED:   added component to this action:  cs.ca-0-36
PLUMED:   added component to this action:  cs.ca-0-37
PLUMED:   added component to this action:  cs.ca-0-38
PLUMED:   added component to this action:  cs.ca-0-39
PLUMED:   added component to this action:  cs.ca-0-40
PLUMED:   added component to this action:  cs.ca-0-41
PLUMED:   added component to this action:  cs.cb-0-2
PLUMED:   added component to this action:  cs.cb-0-3
PLUMED:   added component to this action:  cs.cb-0-4
PLUMED:   added component to this action:  cs.cb-0-5
PLUMED:   added component to this action:  cs.cb-0-7
PLUMED:   added component to this action:  cs.cb-0-8
PLUMED:   added component to this action:  cs.cb-0-10
PLUMED:   added component to this action:  cs.cb-0-11
PLUMED:   added component to this action:  cs.cb-0-12
PLUMED:   added component to this action:  cs.cb-0-16
PLUMED:   added component to this action:  cs.cb-0-17
PLUMED:   added component to this action:  cs.cb-0-18
PLUMED:   added component to this action:  cs.cb-0-19
PLUMED:   added component to this action:  cs.cb-0-20
PLUMED:   added component to this action:  cs.cb-0-21
PLUMED:   added component to this action:  cs.cb-0-22
PLUMED:   added component to this action:  cs.cb-0-23
PLUMED:   added component to this action:  cs.cb-0-24
PLUMED:   added component to this action:  cs.cb-0-26
PLUMED:   added component to this action:  cs.cb-0-27
PLUMED:   added component to this action:  cs.cb-0-28
PLUMED:   added component to this action:  cs.cb-0-30
PLUMED:   added component to this action:  cs.cb-0-34
PLUMED:   added component to this action:  cs.cb-0-35
PLUMED:   added component to this action:  cs.cb-0-36
PLUMED:   added component to this action:  cs.cb-0-39
PLUMED:   added component to this action:  cs.cb-0-40
PLUMED:   added component to this action:  cs.co-0-2
PLUMED:   added component to this action:  cs.co-0-3
PLUMED:   added component to this action:  cs.co-0-4
PLUMED:   added component to this action:  cs.co-0-5
PLUMED:   added component to this action:  cs.co-0-7
PLUMED:   added component to this action:  cs.co-0-8
PLUMED:   added component to this action:  cs.co-0-9
PLUMED:   added component to this action:  cs.co-0-10
PLUMED:   added component to this action:  cs.co-0-11
PLUMED:   added component to this action:  cs.co-0-12
PLUMED:   added component to this action:  cs.co-0-15
PLUMED:   added component to this action:  cs.co-0-16
PLUMED:   added component to this action:  cs.co-0-17
PLUMED:   added component to this action:  cs.co-0-18
PLUMED:   added component to this action:  cs.co-0-19
PLUMED:   added component to this action:  cs.co-0-20
PLUMED:   added component to this action:  cs.co-0-21
PLUMED:   added component to this action:  cs.co-0-22
PLUMED:   added component to this action:  cs.co-0-23
PLUMED:   added component to this action:  cs.co-0-24
PLUMED:   added component to this action:  cs.co-0-25
PLUMED:   added component to this action:  cs.co-0-26
PLUMED:   added component to this action:  cs.co-0-27
PLUMED:   added component to this action:  cs.co-0-28
PLUMED:   added component to this action:  cs.co-0-29
PLUMED:   added component to this action:  cs.co-0-30
PLUMED:   added component to this action:  cs.co-0-31
PLUMED:   added component to this action:  cs.co-0-32
PLUMED:   added component to this action:  cs.co-0-33
PLUMED:   added component to this action:  cs.co-0-34
PLUMED:   added component to this action:  cs.co-0-35
PLUMED:   added component to this action:  cs.co-0-36
PLUMED:   added component to this action:  cs.co-0-37
PLUMED:   added component to this action:  cs.co-0-38
PLUMED:   added component to this action:  cs.co-0-39
PLUMED:   added component to this action:  cs.co-0-40
PLUMED:   added component to this action:  cs.co-0-41
PLUMED:   added component to this action:  cs.ha-0-2
PLUMED:   added component to this action:  cs.ha-0-3
PLUMED:   added component to this action:  cs.ha-0-4
PLUMED:   added component to this action:  cs.ha-0-5
PLUMED:   added component to this action:  cs.ha-0-7
PLUMED:   added component to this action:  cs.ha-0-8
PLUMED:   added component to this action:  cs.ha-0-10
PLUMED:   added component to this action:  cs.ha-0-11
PLUMED:   added component to this action:  cs.ha-0-12
PLUMED:   added component to this action:  cs.ha-0-15
PLUMED:   added component to this action:  cs.ha-0-16
PLUMED:   added component to this action:  cs.ha-0-17
PLUMED:   added component to this action:  cs.ha-0-18
PLUMED:   added component to this action:  cs.ha-0-19
PLUMED:   added component to this action:  cs.ha-0-20
PLUMED:   added component to this action:  cs.ha-0-21
PLUMED:   added component to this action:  cs.ha-0-22
PLUMED:   added component to this action:  cs.ha-0-23
PLUMED:   added component to this action:  cs.ha-0-24
PLUMED:   added component to this action:  cs.ha-0-26
PLUMED:   added component to this action:  cs.ha-0-27
PLUMED:   added component to this action:  cs.ha-0-28
PLUMED:   added component to this action:  cs.ha-0-30
PLUMED:   added component to this action:  cs.ha-0-31
PLUMED:   added component to this action:  cs.ha-0-32
PLUMED:   added component to this action:  cs.ha-0-34
PLUMED:   added component to this action:  cs.ha-0-35
PLUMED:   added component to this action:  cs.ha-0-36
PLUMED:   added component to this action:  cs.ha-0-39
PLUMED:   added component to this action:  cs.ha-0-40
PLUMED:   added component to this action:  cs.ha-0-41
PLUMED:   added component to this action:  cs.hn-0-2
PLUMED:   added component to this action:  cs.hn-0-3
PLUMED:   added component to this action:  cs.hn-0-4
PLUMED:   added component to this action:  cs.hn-0-5
PLUMED:   added component to this action:  cs.hn-0-7
PLUMED:   added component to this action:  cs.hn-0-8
PLUMED:   added component to this action:  cs.hn-0-9
PLUMED:   added component to this action:  cs.hn-0-10
PLUMED:   added component to this action:  cs.hn-0-11
PLUMED:   added component to this action:  cs.hn-0-12
PLUMED:   added component to this action:  cs.hn-0-15
PLUMED:   added component to this action:  cs.hn-0-16
PLUMED:   added component to this action:  cs.hn-0-17
PLUMED:   added component to this action:  cs.hn-0-18
PLUMED:   added component to this action:  cs.hn-0-19
PLUMED:   added component to this action:  cs.hn-0-20
PLUMED:   added component to this action:  cs.hn-0-21
PLUMED:   added component to this action:  cs.hn-0-22
PLUMED:   added component to this action:  cs.hn-0-23
PLUMED:   added component to this action:  cs.hn-0-24
PLUMED:   added component to this action:  cs.hn-0-25
PLUMED:   added component to this action:  cs.hn-0-26
PLUMED:   added component to this action:  cs.hn-0-27
PLUMED:   added component to this action:  cs.hn-0-28
PLUMED:   added component to this action:  cs.hn-0-29
PLUMED:   added component to this action:  cs.hn-0-30
PLUMED:   added component to this action:  cs.hn-0-31
PLUMED:   added component to this action:  cs.hn-0-32
PLUMED:   added component to this action:  cs.hn-0-33
PLUMED:   added component to this action:  cs.hn-0-34
PLUMED:   added component to this action:  cs.hn-0-35
PLUMED:   added component to this action:  cs.hn-0-36
PLUMED:   added component to this action:  cs.hn-0-37
PLUMED:   added component to this action:  cs.hn-0-38
PLUMED:   added component to this action:  cs.hn-0-39
PLUMED:   added component to this action:  cs.hn-0-40
PLUMED:   added component to this action:  cs.hn-0-41
PLUMED:   added component to this action:  cs.nh-0-2
PLUMED:   added component to this action:  cs.nh-0-3
PLUMED:   added component to this action:  cs.nh-0-4
PLUMED:   added component to this action:  cs.nh-0-5
PLUMED:   added component to this action:  cs.nh-0-7
PLUMED:   added component to this action:  cs.nh-0-8
PLUMED:   added component to this action:  cs.nh-0-9
PLUMED:   added component to this action:  cs.nh-0-10
PLUMED:   added component to this action:  cs.nh-0-11
PLUMED:   added component to this action:  cs.nh-0-12
PLUMED:   added component to this action:  cs.nh-0-15
PLUMED:   added component to this action:  cs.nh-0-16
PLUMED:   added component to this action:  cs.nh-0-17
PLUMED:   added component to this action:  cs.nh-0-18
PLUMED:   added component to this action:  cs.nh-0-19
PLUMED:   added component to this action:  cs.nh-0-20
PLUMED:   added component to this action:  cs.nh-0-21
PLUMED:   added component to this action:  cs.nh-0-22
PLUMED:   added component to this action:  cs.nh-0-23
PLUMED:   added component to this action:  cs.nh-0-24
PLUMED:   added component to this action:  cs.nh-0-25
PLUMED:   added component to this action:  cs.nh-0-26
PLUMED:   added component to this action:  cs.nh-0-27
PLUMED:   added component to this action:  cs.nh-0-28
PLUMED:   added component to this action:  cs.nh-0-29
PLUMED:   added component to this action:  cs.nh-0-30
PLUMED:   added component to this action:  cs.nh-0-31
PLUMED:   added component to this action:  cs.nh-0-32
PLUMED:   added component to this action:  cs.nh-0-33
PLUMED:   added component to this action:  cs.nh-0-34
PLUMED:   added component to this action:  cs.nh-0-35
PLUMED:   added component to this action:  cs.nh-0-36
PLUMED:   added component to this action:  cs.nh-0-37
PLUMED:   added component to this action:  cs.nh-0-38
PLUMED:   added component to this action:  cs.nh-0-39
PLUMED:   added component to this action:  cs.nh-0-40
PLUMED:   added component to this action:  cs.nh-0-41
PLUMED:   added component to this action:  cs.expca-0-2
PLUMED:   added component to this action:  cs.expca-0-3
PLUMED:   added component to this action:  cs.expca-0-4
PLUMED:   added component to this action:  cs.expca-0-5
PLUMED:   added component to this action:  cs.expca-0-7
PLUMED:   added component to this action:  cs.expca-0-8
PLUMED:   added component to this action:  cs.expca-0-9
PLUMED:   added component to this action:  cs.expca-0-10
PLUMED:   added component to this action:  cs.expca-0-11
PLUMED:   added component to this action:  cs.expca-0-12
PLUMED:   added component to this action:  cs.expca-0-15
PLUMED:   added component to this action:  cs.expca-0-16
PLUMED:   added component to this action:  cs.expca-0-17
PLUMED:   added component to this action:  cs.expca-0-18
PLUMED:   added component to this action:  cs.expca-0-19
PLUMED:   added component to this action:  cs.expca-0-20
PLUMED:   added component to this action:  cs.expca-0-21
PLUMED:   added component to this action:  cs.expca-0-22
PLUMED:   added component to this action:  cs.expca-0-23
PLUMED:   added component to this action:  cs.expca-0-24
PLUMED:   added component to this action:  cs.expca-0-25
PLUMED:   added component to this action:  cs.expca-0-26
PLUMED:   added component to this action:  cs.expca-0-27
PLUMED:   added component to this action:  cs.expca-0-28
PLUMED:   added component to this action:  cs.expca-0-29
PLUMED:   added component to this action:  cs.expca-0-30
PLUMED:   added component to this action:  cs.expca-0-31
PLUMED:   added component to this action:  cs.expca-0-32
PLUMED:   added component to this action:  cs.expca-0-33
PLUMED:   added component to this action:  cs.expca-0-34
PLUMED:   added component to this action:  cs.expca-0-35
PLUMED:   added component to this action:  cs.expca-0-36
PLUMED:   added component to this action:  cs.expca-0-37
PLUMED:   added component to this action:  cs.expca-0-38
PLUMED:   added component to this action:  cs.expca-0-39
PLUMED:   added component to this action:  cs.expca-0-40
PLUMED:   added component to this action:  cs.expca-0-41
PLUMED:   added component to this action:  cs.expcb-0-2
PLUMED:   added component to this action:  cs.expcb-0-3
PLUMED:   added component to this action:  cs.expcb-0-4
PLUMED:   added component to this action:  cs.expcb-0-5
PLUMED:   added component to this action:  cs.expcb-0-7
PLUMED:   added component to this action:  cs.expcb-0-8
PLUMED:   added component to this action:  cs.expcb-0-10
PLUMED:   added component to this action:  cs.expcb-0-11
PLUMED:   added component to this action:  cs.expcb-0-12
PLUMED:   added component to this action:  cs.expcb-0-16
PLUMED:   added component to this action:  cs.expcb-0-17
PLUMED:   added component to this action:  cs.expcb-0-18
PLUMED:   added component to this action:  cs.expcb-0-19
PLUMED:   added component to this action:  cs.expcb-0-20
PLUMED:   added component to this action:  cs.expcb-0-21
PLUMED:   added component to this action:  cs.expcb-0-22
PLUMED:   added component to this action:  cs.expcb-0-23
PLUMED:   added component to this action:  cs.expcb-0-24
PLUMED:   added component to this action:  cs.expcb-0-26
PLUMED:   added component to this action:  cs.expcb-0-27
PLUMED:   added component to this action:  cs.expcb-0-28
PLUMED:   added component to this action:  cs.expcb-0-30
PLUMED:   added component to this action:  cs.expcb-0-34
PLUMED:   added component to this action:  cs.expcb-0-35
PLUMED:   added component to this action:  cs.expcb-0-36
PLUMED:   added component to this action:  cs.expcb-0-39
PLUMED:   added component to this action:  cs.expcb-0-40
PLUMED:   added component to this action:  cs.expco-0-2
PLUMED:   added component to this action:  cs.expco-0-3
PLUMED:   added component to this action:  cs.expco-0-4
PLUMED:   added component to this action:  cs.expco-0-5
PLUMED:   added component to this action:  cs.expco-0-7
PLUMED:   added component to this action:  cs.expco-0-8
PLUMED:   added component to this action:  cs.expco-0-9
PLUMED:   added component to this action:  cs.expco-0-10
PLUMED:   added component to this action:  cs.expco-0-11
PLUMED:   added component to this action:  cs.expco-0-12
PLUMED:   added component to this action:  cs.expco-0-15
PLUMED:   added component to this action:  cs.expco-0-16
PLUMED:   added component to this action:  cs.expco-0-17
PLUMED:   added component to this action:  cs.expco-0-18
PLUMED:   added component to this action:  cs.expco-0-19
PLUMED:   added component to this action:  cs.expco-0-20
PLUMED:   added component to this action:  cs.expco-0-21
PLUMED:   added component to this action:  cs.expco-0-22
PLUMED:   added component to this action:  cs.expco-0-23
PLUMED:   added component to this action:  cs.expco-0-24
PLUMED:   added component to this action:  cs.expco-0-25
PLUMED:   added component to this action:  cs.expco-0-26
PLUMED:   added component to this action:  cs.expco-0-27
PLUMED:   added component to this action:  cs.expco-0-28
PLUMED:   added component to this action:  cs.expco-0-29
PLUMED:   added component to this action:  cs.expco-0-30
PLUMED:   added component to this action:  cs.expco-0-31
PLUMED:   added component to this action:  cs.expco-0-32
PLUMED:   added component to this action:  cs.expco-0-33
PLUMED:   added component to this action:  cs.expco-0-34
PLUMED:   added component to this action:  cs.expco-0-35
PLUMED:   added component to this action:  cs.expco-0-36
PLUMED:   added component to this action:  cs.expco-0-37
PLUMED:   added component to this action:  cs.expco-0-38
PLUMED:   added component to this action:  cs.expco-0-39
PLUMED:   added component to this action:  cs.expco-0-40
PLUMED:   added component to this action:  cs.expco-0-41
PLUMED:   added component to this action:  cs.expha-0-2
PLUMED:   added component to this action:  cs.expha-0-3
PLUMED:   added component to this action:  cs.expha-0-4
PLUMED:   added component to this action:  cs.expha-0-5
PLUMED:   added component to this action:  cs.expha-0-7
PLUMED:   added component to this action:  cs.expha-0-8
PLUMED:   added component to this action:  cs.expha-0-10
PLUMED:   added component to this action:  cs.expha-0-11
PLUMED:   added component to this action:  cs.expha-0-12
PLUMED:   added component to this action:  cs.expha-0-15
PLUMED:   added component to this action:  cs.expha-0-16
PLUMED:   added component to this action:  cs.expha-0-17
PLUMED:   added component to this action:  cs.expha-0-18
PLUMED:   added component to this action:  cs.expha-0-19
PLUMED:   added component to this action:  cs.expha-0-20
PLUMED:   added component to this action:  cs.expha-0-21
PLUMED:   added component to this action:  cs.expha-0-22
PLUMED:   added component to this action:  cs.expha-0-23
PLUMED:   added component to this action:  cs.expha-0-24
PLUMED:   added component to this action:  cs.expha-0-26
PLUMED:   added component to this action:  cs.expha-0-27
PLUMED:   added component to this action:  cs.expha-0-28
PLUMED:   added component to this action:  cs.expha-0-30
PLUMED:   added component to this action:  cs.expha-0-31
PLUMED:   added component to this action:  cs.expha-0-32
PLUMED:   added component to this action:  cs.expha-0-34
PLUMED:   added component to this action:  cs.expha-0-35
PLUMED:   added component to this action:  cs.expha-0-36
PLUMED:   added component to this action:  cs.expha-0-39
PLUMED:   added component to this action:  cs.expha-0-40
PLUMED:   added component to this action:  cs.expha-0-41
PLUMED:   added component to this action:  cs.exphn-0-2
PLUMED:   added component to this action:  cs.exphn-0-3
PLUMED:   added component to this action:  cs.exphn-0-4
PLUMED:   added component to this action:  cs.exphn-0-5
PLUMED:   added component to this action:  cs.exphn-0-7
PLUMED:   added component to this action:  cs.exphn-0-8
PLUMED:   added component to this action:  cs.exphn-0-9
PLUMED:   added component to this action:  cs.exphn-0-10
PLUMED:   added component to this action:  cs.exphn-0-11
PLUMED:   added component to this action:  cs.exphn-0-12
PLUMED:   added component to this action:  cs.exphn-0-15
PLUMED:   added component to this action:  cs.exphn-0-16
PLUMED:   added component to this action:  cs.exphn-0-17
PLUMED:   added component to this action:  cs.exphn-0-18
PLUMED:   added component to this action:  cs.exphn-0-19
PLUMED:   added component to this action:  cs.exphn-0-20
PLUMED:   added component to this action:  cs.exphn-0-21
PLUMED:   added component to this action:  cs.exphn-0-22
PLUMED:   added component to this action:  cs.exphn-0-23
PLUMED:   added component to this action:  cs.exphn-0-24
PLUMED:   added component to this action:  cs.exphn-0-25
PLUMED:   added component to this action:  cs.exphn-0-26
PLUMED:   added component to this action:  cs.exphn-0-27
PLUMED:   added component to this action:  cs.exphn-0-28
PLUMED:   added component to this action:  cs.exphn-0-29
PLUMED:   added component to this action:  cs.exphn-0-30
PLUMED:   added component to this action:  cs.exphn-0-31
PLUMED:   added component to this action:  cs.exphn-0-32
PLUMED:   added component to this action:  cs.exphn-0-33
PLUMED:   added component to this action:  cs.exphn-0-34
PLUMED:   added component to this action:  cs.exphn-0-35
PLUMED:   added component to this action:  cs.exphn-0-36
PLUMED:   added component to this action:  cs.exphn-0-37
PLUMED:   added component to this action:  cs.exphn-0-38
PLUMED:   added component to this action:  cs.exphn-0-39
PLUMED:   added component to this action:  cs.exphn-0-40
PLUMED:   added component to this action:  cs.exphn-0-41
PLUMED:   added component to this action:  cs.expnh-0-2
PLUMED:   added component to this action:  cs.expnh-0-3
PLUMED:   added component to this action:  cs.expnh-0-4
PLUMED:   added component to this action:  cs.expnh-0-5
PLUMED:   added component to this action:  cs.expnh-0-7
PLUMED:   added component to this action:  cs.expnh-0-8
PLUMED:   added component to this action:  cs.expnh-0-9
PLUMED:   added component to this action:  cs.expnh-0-10
PLUMED:   added component to this action:  cs.expnh-0-11
PLUMED:   added component to this action:  cs.expnh-0-12
PLUMED:   added component to this action:  cs.expnh-0-15
PLUMED:   added component to this action:  cs.expnh-0-16
PLUMED:   added component to this action:  cs.expnh-0-17
PLUMED:   added component to this action:  cs.expnh-0-18
PLUMED:   added component to this action:  cs.expnh-0-19
PLUMED:   added component to this action:  cs.expnh-0-20
PLUMED:   added component to this action:  cs.expnh-0-21
PLUMED:   added component to this action:  cs.expnh-0-22
PLUMED:   added component to this action:  cs.expnh-0-23
PLUMED:   added component to this action:  cs.expnh-0-24
PLUMED:   added component to this action:  cs.expnh-0-25
PLUMED:   added component to this action:  cs.expnh-0-26
PLUMED:   added component to this action:  cs.expnh-0-27
PLUMED:   added component to this action:  cs.expnh-0-28
PLUMED:   added component to this action:  cs.expnh-0-29
PLUMED:   added component to this action:  cs.expnh-0-30
PLUMED:   added component to this action:  cs.expnh-0-31
PLUMED:   added component to this action:  cs.expnh-0-32
PLUMED:   added component to this action:  cs.expnh-0-33
PLUMED:   added component to this action:  cs.expnh-0-34
PLUMED:   added component to this action:  cs.expnh-0-35
PLUMED:   added component to this action:  cs.expnh-0-36
PLUMED:   added component to this action:  cs.expnh-0-37
PLUMED:   added component to this action:  cs.expnh-0-38
PLUMED:   added component to this action:  cs.expnh-0-39
PLUMED:   added component to this action:  cs.expnh-0-40
PLUMED:   added component to this action:  cs.expnh-0-41
PLUMED: Action PBMETAD
PLUMED:   with label pbmetad
PLUMED:   with arguments helix.lessthan beta rgyr hydro salt dihcor
PLUMED:   added component to this action:  pbmetad.bias
PLUMED:   The number of bins will be estimated from GRID_SPACING
PLUMED:   Gaussian width  0.640000 0.330000 0.030000 0.690000 2.750000 1.340000  Gaussian height 1.200000
PLUMED:   Gaussian deposition pace 500
PLUMED:   Gaussian files HILLS_helix HILLS_beta HILLS_rgyr HILLS_hydro HILLS_salt HILLS_dihcor
PLUMED:   Well-Tempered Bias Factor 24.000000
PLUMED:   Hills relaxation time (tau) 44.302228
PLUMED:   KbT 2.311421
PLUMED:   Multiple walkers active using MPI communnication
PLUMED:   Grid min -1 -1 -1 -1 -1 -1
PLUMED:   Grid max 100 100 20 200 400 50
PLUMED:   Grid bin 1010 1010 2100 2010 4010 5100
PLUMED:   Grid uses spline interpolation
PLUMED:   Grid is written on file GRID.helix.lessthan with stride 10000
PLUMED:   Grid is written on file GRID.beta with stride 10000
PLUMED:   Grid is written on file GRID.rgyr with stride 10000
PLUMED:   Grid is written on file GRID.hydro with stride 10000
PLUMED:   Grid is written on file GRID.salt with stride 10000
PLUMED:   Grid is written on file GRID.dihcor with stride 10000
PLUMED:   Reading bias from grid in file ../plumed_data/GRID.helix.lessthan
PLUMED:   Reading bias from grid in file ../plumed_data/GRID.beta
PLUMED:   Reading bias from grid in file ../plumed_data/GRID.rgyr
PLUMED:   Reading bias from grid in file ../plumed_data/GRID.hydro
PLUMED:   Reading bias from grid in file ../plumed_data/GRID.salt
PLUMED:   Reading bias from grid in file ../plumed_data/GRID.dihcor
PLUMED:   Restarting from ../plumed_data/GRID.helix.lessthan:
PLUMED:   Restarting from ../plumed_data/GRID.beta:
PLUMED:   Restarting from ../plumed_data/GRID.rgyr:
PLUMED:   Restarting from ../plumed_data/GRID.hydro:
PLUMED:   Restarting from ../plumed_data/GRID.salt:
PLUMED:   Restarting from ../plumed_data/GRID.dihcor:
PLUMED:   WARNING: restart file HILLS_helix not found
PLUMED:   WARNING: restart file HILLS_beta not found
PLUMED:   WARNING: restart file HILLS_rgyr not found
PLUMED:   WARNING: restart file HILLS_hydro not found
PLUMED:   WARNING: restart file HILLS_salt not found
PLUMED:   WARNING: restart file HILLS_dihcor not found
PLUMED:   Bibliography [7][8]
PLUMED: Action METAINFERENCE
PLUMED:   with label cs_ha
PLUMED:   with arguments cs.ha-0-2 cs.ha-0-3 cs.ha-0-4 cs.ha-0-5 cs.ha-0-7 cs.ha-0-8 cs.ha-0-10 cs.ha-0-11 cs.ha-0-12 cs.ha-0-15 cs.ha-0-16 cs.ha-0-17 cs.ha-0-18 cs.ha-0-19 cs.ha-0-20 cs.ha-0-21 cs.ha-0-22 cs.ha-0-23 cs.ha-0-24 cs.ha-0-26 cs.ha-0-27 cs.ha-0-28 cs.ha-0-30 cs.ha-0-31 cs.ha-0-32 cs.ha-0-34 cs.ha-0-35 cs.ha-0-36 cs.ha-0-39 cs.ha-0-40 cs.ha-0-41 pbmetad.bias
PLUMED:   added component to this action:  cs_ha.bias
PLUMED:   Restarting from MISTATUS.cs_hacs_ha
PLUMED:   with gaussian noise and a single noise parameter for all the data
PLUMED:   number of experimental data points 31
PLUMED:   number of replicas 48
PLUMED:   initial data uncertainties 0.055374
PLUMED:   minimum data uncertainties 0.000010
PLUMED:   maximum data uncertainties 10.000000
PLUMED:   maximum MC move of data uncertainties 0.100000
PLUMED:   temperature of the system 2.311421
PLUMED:   MC steps 1
PLUMED:   initial standard errors of the mean 0.500000
PLUMED:   added component to this action:  cs_ha.biasDer
PLUMED:   added component to this action:  cs_ha.weight
PLUMED:   added component to this action:  cs_ha.neff
PLUMED:   added component to this action:  cs_ha.acceptSigma
PLUMED:   added component to this action:  cs_ha.sigmaMean
PLUMED:   added component to this action:  cs_ha.sigma
PLUMED:   Bibliography [9][10][11][12]
PLUMED: Action METAINFERENCE
PLUMED:   with label cs_hn
PLUMED:   with arguments cs.hn-0-2 cs.hn-0-3 cs.hn-0-4 cs.hn-0-5 cs.hn-0-7 cs.hn-0-8 cs.hn-0-9 cs.hn-0-10 cs.hn-0-11 cs.hn-0-12 cs.hn-0-15 cs.hn-0-16 cs.hn-0-17 cs.hn-0-18 cs.hn-0-19 cs.hn-0-20 cs.hn-0-21 cs.hn-0-22 cs.hn-0-23 cs.hn-0-24 cs.hn-0-25 cs.hn-0-26 cs.hn-0-27 cs.hn-0-28 cs.hn-0-29 cs.hn-0-30 cs.hn-0-31 cs.hn-0-32 cs.hn-0-33 cs.hn-0-34 cs.hn-0-35 cs.hn-0-36 cs.hn-0-37 cs.hn-0-38 cs.hn-0-39 cs.hn-0-40 cs.hn-0-41 pbmetad.bias
PLUMED:   added component to this action:  cs_hn.bias
PLUMED:   Restarting from MISTATUS.cs_hncs_hn
PLUMED:   with gaussian noise and a single noise parameter for all the data
PLUMED:   number of experimental data points 37
PLUMED:   number of replicas 48
PLUMED:   initial data uncertainties 0.031938
PLUMED:   minimum data uncertainties 0.000010
PLUMED:   maximum data uncertainties 10.000000
PLUMED:   maximum MC move of data uncertainties 0.100000
PLUMED:   temperature of the system 2.311421
PLUMED:   MC steps 1
PLUMED:   initial standard errors of the mean 0.500000
PLUMED:   added component to this action:  cs_hn.biasDer
PLUMED:   added component to this action:  cs_hn.weight
PLUMED:   added component to this action:  cs_hn.neff
PLUMED:   added component to this action:  cs_hn.acceptSigma
PLUMED:   added component to this action:  cs_hn.sigmaMean
PLUMED:   added component to this action:  cs_hn.sigma
PLUMED:   Bibliography [9][10][11][12]
PLUMED: Action METAINFERENCE
PLUMED:   with label cs_nh
PLUMED:   with arguments cs.nh-0-2 cs.nh-0-3 cs.nh-0-4 cs.nh-0-5 cs.nh-0-7 cs.nh-0-8 cs.nh-0-9 cs.nh-0-10 cs.nh-0-11 cs.nh-0-12 cs.nh-0-15 cs.nh-0-16 cs.nh-0-17 cs.nh-0-18 cs.nh-0-19 cs.nh-0-20 cs.nh-0-21 cs.nh-0-22 cs.nh-0-23 cs.nh-0-24 cs.nh-0-25 cs.nh-0-26 cs.nh-0-27 cs.nh-0-28 cs.nh-0-29 cs.nh-0-30 cs.nh-0-31 cs.nh-0-32 cs.nh-0-33 cs.nh-0-34 cs.nh-0-35 cs.nh-0-36 cs.nh-0-37 cs.nh-0-38 cs.nh-0-39 cs.nh-0-40 cs.nh-0-41 pbmetad.bias
PLUMED:   added component to this action:  cs_nh.bias
PLUMED:   Restarting from MISTATUS.cs_nhcs_nh
PLUMED:   with gaussian noise and a single noise parameter for all the data
PLUMED:   number of experimental data points 37
PLUMED:   number of replicas 48
PLUMED:   initial data uncertainties 0.034803
PLUMED:   minimum data uncertainties 0.000010
PLUMED:   maximum data uncertainties 10.000000
PLUMED:   maximum MC move of data uncertainties 0.100000
PLUMED:   temperature of the system 2.311421
PLUMED:   MC steps 1
PLUMED:   initial standard errors of the mean 0.500000
PLUMED:   added component to this action:  cs_nh.biasDer
PLUMED:   added component to this action:  cs_nh.weight
PLUMED:   added component to this action:  cs_nh.neff
PLUMED:   added component to this action:  cs_nh.acceptSigma
PLUMED:   added component to this action:  cs_nh.sigmaMean
PLUMED:   added component to this action:  cs_nh.sigma
PLUMED:   Bibliography [9][10][11][12]
PLUMED: Action METAINFERENCE
PLUMED:   with label cs_ca
PLUMED:   with arguments cs.ca-0-2 cs.ca-0-3 cs.ca-0-4 cs.ca-0-5 cs.ca-0-7 cs.ca-0-8 cs.ca-0-9 cs.ca-0-10 cs.ca-0-11 cs.ca-0-12 cs.ca-0-15 cs.ca-0-16 cs.ca-0-17 cs.ca-0-18 cs.ca-0-19 cs.ca-0-20 cs.ca-0-21 cs.ca-0-22 cs.ca-0-23 cs.ca-0-24 cs.ca-0-25 cs.ca-0-26 cs.ca-0-27 cs.ca-0-28 cs.ca-0-29 cs.ca-0-30 cs.ca-0-31 cs.ca-0-32 cs.ca-0-33 cs.ca-0-34 cs.ca-0-35 cs.ca-0-36 cs.ca-0-37 cs.ca-0-38 cs.ca-0-39 cs.ca-0-40 cs.ca-0-41 pbmetad.bias
PLUMED:   added component to this action:  cs_ca.bias
PLUMED:   Restarting from MISTATUS.cs_cacs_ca
PLUMED:   with gaussian noise and a single noise parameter for all the data
PLUMED:   number of experimental data points 37
PLUMED:   number of replicas 48
PLUMED:   initial data uncertainties 0.023629
PLUMED:   minimum data uncertainties 0.000010
PLUMED:   maximum data uncertainties 10.000000
PLUMED:   maximum MC move of data uncertainties 0.100000
PLUMED:   temperature of the system 2.311421
PLUMED:   MC steps 1
PLUMED:   initial standard errors of the mean 0.500000
PLUMED:   added component to this action:  cs_ca.biasDer
PLUMED:   added component to this action:  cs_ca.weight
PLUMED:   added component to this action:  cs_ca.neff
PLUMED:   added component to this action:  cs_ca.acceptSigma
PLUMED:   added component to this action:  cs_ca.sigmaMean
PLUMED:   added component to this action:  cs_ca.sigma
PLUMED:   Bibliography [9][10][11][12]
PLUMED: Action METAINFERENCE
PLUMED:   with label cs_cb
PLUMED:   with arguments cs.cb-0-2 cs.cb-0-3 cs.cb-0-4 cs.cb-0-5 cs.cb-0-7 cs.cb-0-8 cs.cb-0-10 cs.cb-0-11 cs.cb-0-12 cs.cb-0-16 cs.cb-0-17 cs.cb-0-18 cs.cb-0-19 cs.cb-0-20 cs.cb-0-21 cs.cb-0-22 cs.cb-0-23 cs.cb-0-24 cs.cb-0-26 cs.cb-0-27 cs.cb-0-28 cs.cb-0-30 cs.cb-0-34 cs.cb-0-35 cs.cb-0-36 cs.cb-0-39 cs.cb-0-40 pbmetad.bias
PLUMED:   added component to this action:  cs_cb.bias
PLUMED:   Restarting from MISTATUS.cs_cbcs_cb
PLUMED:   with gaussian noise and a single noise parameter for all the data
PLUMED:   number of experimental data points 27
PLUMED:   number of replicas 48
PLUMED:   initial data uncertainties 0.131959
PLUMED:   minimum data uncertainties 0.000010
PLUMED:   maximum data uncertainties 10.000000
PLUMED:   maximum MC move of data uncertainties 0.100000
PLUMED:   temperature of the system 2.311421
PLUMED:   MC steps 1
PLUMED:   initial standard errors of the mean 0.500000
PLUMED:   added component to this action:  cs_cb.biasDer
PLUMED:   added component to this action:  cs_cb.weight
PLUMED:   added component to this action:  cs_cb.neff
PLUMED:   added component to this action:  cs_cb.acceptSigma
PLUMED:   added component to this action:  cs_cb.sigmaMean
PLUMED:   added component to this action:  cs_cb.sigma
PLUMED:   Bibliography [9][10][11][12]
PLUMED: Action METAINFERENCE
PLUMED:   with label cs_co
PLUMED:   with arguments cs.co-0-2 cs.co-0-3 cs.co-0-4 cs.co-0-5 cs.co-0-7 cs.co-0-8 cs.co-0-9 cs.co-0-10 cs.co-0-11 cs.co-0-12 cs.co-0-15 cs.co-0-16 cs.co-0-17 cs.co-0-18 cs.co-0-19 cs.co-0-20 cs.co-0-21 cs.co-0-22 cs.co-0-23 cs.co-0-24 cs.co-0-25 cs.co-0-26 cs.co-0-27 cs.co-0-28 cs.co-0-29 cs.co-0-30 cs.co-0-31 cs.co-0-32 cs.co-0-33 cs.co-0-34 cs.co-0-35 cs.co-0-36 cs.co-0-37 cs.co-0-38 cs.co-0-39 cs.co-0-40 cs.co-0-41 pbmetad.bias
PLUMED:   added component to this action:  cs_co.bias
PLUMED:   Restarting from MISTATUS.cs_cocs_co
PLUMED:   with gaussian noise and a single noise parameter for all the data
PLUMED:   number of experimental data points 37
PLUMED:   number of replicas 48
PLUMED:   initial data uncertainties 0.118391
PLUMED:   minimum data uncertainties 0.000010
PLUMED:   maximum data uncertainties 10.000000
PLUMED:   maximum MC move of data uncertainties 0.100000
PLUMED:   temperature of the system 2.311421
PLUMED:   MC steps 1
PLUMED:   initial standard errors of the mean 0.500000
PLUMED:   added component to this action:  cs_co.biasDer
PLUMED:   added component to this action:  cs_co.weight
PLUMED:   added component to this action:  cs_co.neff
PLUMED:   added component to this action:  cs_co.acceptSigma
PLUMED:   added component to this action:  cs_co.sigmaMean
PLUMED:   added component to this action:  cs_co.sigma
PLUMED:   Bibliography [9][10][11][12]
PLUMED: Action ENSEMBLE
PLUMED:   with label ens
PLUMED:   with arguments cs.ha-0-2 cs.ha-0-3 cs.ha-0-4 cs.ha-0-5 cs.ha-0-7 cs.ha-0-8 cs.ha-0-10 cs.ha-0-11 cs.ha-0-12 cs.ha-0-15 cs.ha-0-16 cs.ha-0-17 cs.ha-0-18 cs.ha-0-19 cs.ha-0-20 cs.ha-0-21 cs.ha-0-22 cs.ha-0-23 cs.ha-0-24 cs.ha-0-26 cs.ha-0-27 cs.ha-0-28 cs.ha-0-30 cs.ha-0-31 cs.ha-0-32 cs.ha-0-34 cs.ha-0-35 cs.ha-0-36 cs.ha-0-39 cs.ha-0-40 cs.ha-0-41 cs.hn-0-2 cs.hn-0-3 cs.hn-0-4 cs.hn-0-5 cs.hn-0-7 cs.hn-0-8 cs.hn-0-9 cs.hn-0-10 cs.hn-0-11 cs.hn-0-12 cs.hn-0-15 cs.hn-0-16 cs.hn-0-17 cs.hn-0-18 cs.hn-0-19 cs.hn-0-20 cs.hn-0-21 cs.hn-0-22 cs.hn-0-23 cs.hn-0-24 cs.hn-0-25 cs.hn-0-26 cs.hn-0-27 cs.hn-0-28 cs.hn-0-29 cs.hn-0-30 cs.hn-0-31 cs.hn-0-32 cs.hn-0-33 cs.hn-0-34 cs.hn-0-35 cs.hn-0-36 cs.hn-0-37 cs.hn-0-38 cs.hn-0-39 cs.hn-0-40 cs.hn-0-41 cs.nh-0-2 cs.nh-0-3 cs.nh-0-4 cs.nh-0-5 cs.nh-0-7 cs.nh-0-8 cs.nh-0-9 cs.nh-0-10 cs.nh-0-11 cs.nh-0-12 cs.nh-0-15 cs.nh-0-16 cs.nh-0-17 cs.nh-0-18 cs.nh-0-19 cs.nh-0-20 cs.nh-0-21 cs.nh-0-22 cs.nh-0-23 cs.nh-0-24 cs.nh-0-25 cs.nh-0-26 cs.nh-0-27 cs.nh-0-28 cs.nh-0-29 cs.nh-0-30 cs.nh-0-31 cs.nh-0-32 cs.nh-0-33 cs.nh-0-34 cs.nh-0-35 cs.nh-0-36 cs.nh-0-37 cs.nh-0-38 cs.nh-0-39 cs.nh-0-40 cs.nh-0-41 cs.ca-0-2 cs.ca-0-3 cs.ca-0-4 cs.ca-0-5 cs.ca-0-7 cs.ca-0-8 cs.ca-0-9 cs.ca-0-10 cs.ca-0-11 cs.ca-0-12 cs.ca-0-15 cs.ca-0-16 cs.ca-0-17 cs.ca-0-18 cs.ca-0-19 cs.ca-0-20 cs.ca-0-21 cs.ca-0-22 cs.ca-0-23 cs.ca-0-24 cs.ca-0-25 cs.ca-0-26 cs.ca-0-27 cs.ca-0-28 cs.ca-0-29 cs.ca-0-30 cs.ca-0-31 cs.ca-0-32 cs.ca-0-33 cs.ca-0-34 cs.ca-0-35 cs.ca-0-36 cs.ca-0-37 cs.ca-0-38 cs.ca-0-39 cs.ca-0-40 cs.ca-0-41 cs.cb-0-2 cs.cb-0-3 cs.cb-0-4 cs.cb-0-5 cs.cb-0-7 cs.cb-0-8 cs.cb-0-10 cs.cb-0-11 cs.cb-0-12 cs.cb-0-16 cs.cb-0-17 cs.cb-0-18 cs.cb-0-19 cs.cb-0-20 cs.cb-0-21 cs.cb-0-22 cs.cb-0-23 cs.cb-0-24 cs.cb-0-26 cs.cb-0-27 cs.cb-0-28 cs.cb-0-30 cs.cb-0-34 cs.cb-0-35 cs.cb-0-36 cs.cb-0-39 cs.cb-0-40 cs.co-0-2 cs.co-0-3 cs.co-0-4 cs.co-0-5 cs.co-0-7 cs.co-0-8 cs.co-0-9 cs.co-0-10 cs.co-0-11 cs.co-0-12 cs.co-0-15 cs.co-0-16 cs.co-0-17 cs.co-0-18 cs.co-0-19 cs.co-0-20 cs.co-0-21 cs.co-0-22 cs.co-0-23 cs.co-0-24 cs.co-0-25 cs.co-0-26 cs.co-0-27 cs.co-0-28 cs.co-0-29 cs.co-0-30 cs.co-0-31 cs.co-0-32 cs.co-0-33 cs.co-0-34 cs.co-0-35 cs.co-0-36 cs.co-0-37 cs.co-0-38 cs.co-0-39 cs.co-0-40 cs.co-0-41 pbmetad.bias
PLUMED:   added component to this action:  ens.cs.ha-0-2
PLUMED:   added component to this action:  ens.cs.ha-0-3
PLUMED:   added component to this action:  ens.cs.ha-0-4
PLUMED:   added component to this action:  ens.cs.ha-0-5
PLUMED:   added component to this action:  ens.cs.ha-0-7
PLUMED:   added component to this action:  ens.cs.ha-0-8
PLUMED:   added component to this action:  ens.cs.ha-0-10
PLUMED:   added component to this action:  ens.cs.ha-0-11
PLUMED:   added component to this action:  ens.cs.ha-0-12
PLUMED:   added component to this action:  ens.cs.ha-0-15
PLUMED:   added component to this action:  ens.cs.ha-0-16
PLUMED:   added component to this action:  ens.cs.ha-0-17
PLUMED:   added component to this action:  ens.cs.ha-0-18
PLUMED:   added component to this action:  ens.cs.ha-0-19
PLUMED:   added component to this action:  ens.cs.ha-0-20
PLUMED:   added component to this action:  ens.cs.ha-0-21
PLUMED:   added component to this action:  ens.cs.ha-0-22
PLUMED:   added component to this action:  ens.cs.ha-0-23
PLUMED:   added component to this action:  ens.cs.ha-0-24
PLUMED:   added component to this action:  ens.cs.ha-0-26
PLUMED:   added component to this action:  ens.cs.ha-0-27
PLUMED:   added component to this action:  ens.cs.ha-0-28
PLUMED:   added component to this action:  ens.cs.ha-0-30
PLUMED:   added component to this action:  ens.cs.ha-0-31
PLUMED:   added component to this action:  ens.cs.ha-0-32
PLUMED:   added component to this action:  ens.cs.ha-0-34
PLUMED:   added component to this action:  ens.cs.ha-0-35
PLUMED:   added component to this action:  ens.cs.ha-0-36
PLUMED:   added component to this action:  ens.cs.ha-0-39
PLUMED:   added component to this action:  ens.cs.ha-0-40
PLUMED:   added component to this action:  ens.cs.ha-0-41
PLUMED:   added component to this action:  ens.cs.hn-0-2
PLUMED:   added component to this action:  ens.cs.hn-0-3
PLUMED:   added component to this action:  ens.cs.hn-0-4
PLUMED:   added component to this action:  ens.cs.hn-0-5
PLUMED:   added component to this action:  ens.cs.hn-0-7
PLUMED:   added component to this action:  ens.cs.hn-0-8
PLUMED:   added component to this action:  ens.cs.hn-0-9
PLUMED:   added component to this action:  ens.cs.hn-0-10
PLUMED:   added component to this action:  ens.cs.hn-0-11
PLUMED:   added component to this action:  ens.cs.hn-0-12
PLUMED:   added component to this action:  ens.cs.hn-0-15
PLUMED:   added component to this action:  ens.cs.hn-0-16
PLUMED:   added component to this action:  ens.cs.hn-0-17
PLUMED:   added component to this action:  ens.cs.hn-0-18
PLUMED:   added component to this action:  ens.cs.hn-0-19
PLUMED:   added component to this action:  ens.cs.hn-0-20
PLUMED:   added component to this action:  ens.cs.hn-0-21
PLUMED:   added component to this action:  ens.cs.hn-0-22
PLUMED:   added component to this action:  ens.cs.hn-0-23
PLUMED:   added component to this action:  ens.cs.hn-0-24
PLUMED:   added component to this action:  ens.cs.hn-0-25
PLUMED:   added component to this action:  ens.cs.hn-0-26
PLUMED:   added component to this action:  ens.cs.hn-0-27
PLUMED:   added component to this action:  ens.cs.hn-0-28
PLUMED:   added component to this action:  ens.cs.hn-0-29
PLUMED:   added component to this action:  ens.cs.hn-0-30
PLUMED:   added component to this action:  ens.cs.hn-0-31
PLUMED:   added component to this action:  ens.cs.hn-0-32
PLUMED:   added component to this action:  ens.cs.hn-0-33
PLUMED:   added component to this action:  ens.cs.hn-0-34
PLUMED:   added component to this action:  ens.cs.hn-0-35
PLUMED:   added component to this action:  ens.cs.hn-0-36
PLUMED:   added component to this action:  ens.cs.hn-0-37
PLUMED:   added component to this action:  ens.cs.hn-0-38
PLUMED:   added component to this action:  ens.cs.hn-0-39
PLUMED:   added component to this action:  ens.cs.hn-0-40
PLUMED:   added component to this action:  ens.cs.hn-0-41
PLUMED:   added component to this action:  ens.cs.nh-0-2
PLUMED:   added component to this action:  ens.cs.nh-0-3
PLUMED:   added component to this action:  ens.cs.nh-0-4
PLUMED:   added component to this action:  ens.cs.nh-0-5
PLUMED:   added component to this action:  ens.cs.nh-0-7
PLUMED:   added component to this action:  ens.cs.nh-0-8
PLUMED:   added component to this action:  ens.cs.nh-0-9
PLUMED:   added component to this action:  ens.cs.nh-0-10
PLUMED:   added component to this action:  ens.cs.nh-0-11
PLUMED:   added component to this action:  ens.cs.nh-0-12
PLUMED:   added component to this action:  ens.cs.nh-0-15
PLUMED:   added component to this action:  ens.cs.nh-0-16
PLUMED:   added component to this action:  ens.cs.nh-0-17
PLUMED:   added component to this action:  ens.cs.nh-0-18
PLUMED:   added component to this action:  ens.cs.nh-0-19
PLUMED:   added component to this action:  ens.cs.nh-0-20
PLUMED:   added component to this action:  ens.cs.nh-0-21
PLUMED:   added component to this action:  ens.cs.nh-0-22
PLUMED:   added component to this action:  ens.cs.nh-0-23
PLUMED:   added component to this action:  ens.cs.nh-0-24
PLUMED:   added component to this action:  ens.cs.nh-0-25
PLUMED:   added component to this action:  ens.cs.nh-0-26
PLUMED:   added component to this action:  ens.cs.nh-0-27
PLUMED:   added component to this action:  ens.cs.nh-0-28
PLUMED:   added component to this action:  ens.cs.nh-0-29
PLUMED:   added component to this action:  ens.cs.nh-0-30
PLUMED:   added component to this action:  ens.cs.nh-0-31
PLUMED:   added component to this action:  ens.cs.nh-0-32
PLUMED:   added component to this action:  ens.cs.nh-0-33
PLUMED:   added component to this action:  ens.cs.nh-0-34
PLUMED:   added component to this action:  ens.cs.nh-0-35
PLUMED:   added component to this action:  ens.cs.nh-0-36
PLUMED:   added component to this action:  ens.cs.nh-0-37
PLUMED:   added component to this action:  ens.cs.nh-0-38
PLUMED:   added component to this action:  ens.cs.nh-0-39
PLUMED:   added component to this action:  ens.cs.nh-0-40
PLUMED:   added component to this action:  ens.cs.nh-0-41
PLUMED:   added component to this action:  ens.cs.ca-0-2
PLUMED:   added component to this action:  ens.cs.ca-0-3
PLUMED:   added component to this action:  ens.cs.ca-0-4
PLUMED:   added component to this action:  ens.cs.ca-0-5
PLUMED:   added component to this action:  ens.cs.ca-0-7
PLUMED:   added component to this action:  ens.cs.ca-0-8
PLUMED:   added component to this action:  ens.cs.ca-0-9
PLUMED:   added component to this action:  ens.cs.ca-0-10
PLUMED:   added component to this action:  ens.cs.ca-0-11
PLUMED:   added component to this action:  ens.cs.ca-0-12
PLUMED:   added component to this action:  ens.cs.ca-0-15
PLUMED:   added component to this action:  ens.cs.ca-0-16
PLUMED:   added component to this action:  ens.cs.ca-0-17
PLUMED:   added component to this action:  ens.cs.ca-0-18
PLUMED:   added component to this action:  ens.cs.ca-0-19
PLUMED:   added component to this action:  ens.cs.ca-0-20
PLUMED:   added component to this action:  ens.cs.ca-0-21
PLUMED:   added component to this action:  ens.cs.ca-0-22
PLUMED:   added component to this action:  ens.cs.ca-0-23
PLUMED:   added component to this action:  ens.cs.ca-0-24
PLUMED:   added component to this action:  ens.cs.ca-0-25
PLUMED:   added component to this action:  ens.cs.ca-0-26
PLUMED:   added component to this action:  ens.cs.ca-0-27
PLUMED:   added component to this action:  ens.cs.ca-0-28
PLUMED:   added component to this action:  ens.cs.ca-0-29
PLUMED:   added component to this action:  ens.cs.ca-0-30
PLUMED:   added component to this action:  ens.cs.ca-0-31
PLUMED:   added component to this action:  ens.cs.ca-0-32
PLUMED:   added component to this action:  ens.cs.ca-0-33
PLUMED:   added component to this action:  ens.cs.ca-0-34
PLUMED:   added component to this action:  ens.cs.ca-0-35
PLUMED:   added component to this action:  ens.cs.ca-0-36
PLUMED:   added component to this action:  ens.cs.ca-0-37
PLUMED:   added component to this action:  ens.cs.ca-0-38
PLUMED:   added component to this action:  ens.cs.ca-0-39
PLUMED:   added component to this action:  ens.cs.ca-0-40
PLUMED:   added component to this action:  ens.cs.ca-0-41
PLUMED:   added component to this action:  ens.cs.cb-0-2
PLUMED:   added component to this action:  ens.cs.cb-0-3
PLUMED:   added component to this action:  ens.cs.cb-0-4
PLUMED:   added component to this action:  ens.cs.cb-0-5
PLUMED:   added component to this action:  ens.cs.cb-0-7
PLUMED:   added component to this action:  ens.cs.cb-0-8
PLUMED:   added component to this action:  ens.cs.cb-0-10
PLUMED:   added component to this action:  ens.cs.cb-0-11
PLUMED:   added component to this action:  ens.cs.cb-0-12
PLUMED:   added component to this action:  ens.cs.cb-0-16
PLUMED:   added component to this action:  ens.cs.cb-0-17
PLUMED:   added component to this action:  ens.cs.cb-0-18
PLUMED:   added component to this action:  ens.cs.cb-0-19
PLUMED:   added component to this action:  ens.cs.cb-0-20
PLUMED:   added component to this action:  ens.cs.cb-0-21
PLUMED:   added component to this action:  ens.cs.cb-0-22
PLUMED:   added component to this action:  ens.cs.cb-0-23
PLUMED:   added component to this action:  ens.cs.cb-0-24
PLUMED:   added component to this action:  ens.cs.cb-0-26
PLUMED:   added component to this action:  ens.cs.cb-0-27
PLUMED:   added component to this action:  ens.cs.cb-0-28
PLUMED:   added component to this action:  ens.cs.cb-0-30
PLUMED:   added component to this action:  ens.cs.cb-0-34
PLUMED:   added component to this action:  ens.cs.cb-0-35
PLUMED:   added component to this action:  ens.cs.cb-0-36
PLUMED:   added component to this action:  ens.cs.cb-0-39
PLUMED:   added component to this action:  ens.cs.cb-0-40
PLUMED:   added component to this action:  ens.cs.co-0-2
PLUMED:   added component to this action:  ens.cs.co-0-3
PLUMED:   added component to this action:  ens.cs.co-0-4
PLUMED:   added component to this action:  ens.cs.co-0-5
PLUMED:   added component to this action:  ens.cs.co-0-7
PLUMED:   added component to this action:  ens.cs.co-0-8
PLUMED:   added component to this action:  ens.cs.co-0-9
PLUMED:   added component to this action:  ens.cs.co-0-10
PLUMED:   added component to this action:  ens.cs.co-0-11
PLUMED:   added component to this action:  ens.cs.co-0-12
PLUMED:   added component to this action:  ens.cs.co-0-15
PLUMED:   added component to this action:  ens.cs.co-0-16
PLUMED:   added component to this action:  ens.cs.co-0-17
PLUMED:   added component to this action:  ens.cs.co-0-18
PLUMED:   added component to this action:  ens.cs.co-0-19
PLUMED:   added component to this action:  ens.cs.co-0-20
PLUMED:   added component to this action:  ens.cs.co-0-21
PLUMED:   added component to this action:  ens.cs.co-0-22
PLUMED:   added component to this action:  ens.cs.co-0-23
PLUMED:   added component to this action:  ens.cs.co-0-24
PLUMED:   added component to this action:  ens.cs.co-0-25
PLUMED:   added component to this action:  ens.cs.co-0-26
PLUMED:   added component to this action:  ens.cs.co-0-27
PLUMED:   added component to this action:  ens.cs.co-0-28
PLUMED:   added component to this action:  ens.cs.co-0-29
PLUMED:   added component to this action:  ens.cs.co-0-30
PLUMED:   added component to this action:  ens.cs.co-0-31
PLUMED:   added component to this action:  ens.cs.co-0-32
PLUMED:   added component to this action:  ens.cs.co-0-33
PLUMED:   added component to this action:  ens.cs.co-0-34
PLUMED:   added component to this action:  ens.cs.co-0-35
PLUMED:   added component to this action:  ens.cs.co-0-36
PLUMED:   added component to this action:  ens.cs.co-0-37
PLUMED:   added component to this action:  ens.cs.co-0-38
PLUMED:   added component to this action:  ens.cs.co-0-39
PLUMED:   added component to this action:  ens.cs.co-0-40
PLUMED:   added component to this action:  ens.cs.co-0-41
PLUMED:   averaging over 48 replicas.
PLUMED:   doing simple REWEIGHT using the latest ARGUMENT as energy.
PLUMED: Action STATS
PLUMED:   with label stat
PLUMED:   with arguments ens.cs.ha-0-2 ens.cs.ha-0-3 ens.cs.ha-0-4 ens.cs.ha-0-5 ens.cs.ha-0-7 ens.cs.ha-0-8 ens.cs.ha-0-10 ens.cs.ha-0-11 ens.cs.ha-0-12 ens.cs.ha-0-15 ens.cs.ha-0-16 ens.cs.ha-0-17 ens.cs.ha-0-18 ens.cs.ha-0-19 ens.cs.ha-0-20 ens.cs.ha-0-21 ens.cs.ha-0-22 ens.cs.ha-0-23 ens.cs.ha-0-24 ens.cs.ha-0-26 ens.cs.ha-0-27 ens.cs.ha-0-28 ens.cs.ha-0-30 ens.cs.ha-0-31 ens.cs.ha-0-32 ens.cs.ha-0-34 ens.cs.ha-0-35 ens.cs.ha-0-36 ens.cs.ha-0-39 ens.cs.ha-0-40 ens.cs.ha-0-41 ens.cs.hn-0-2 ens.cs.hn-0-3 ens.cs.hn-0-4 ens.cs.hn-0-5 ens.cs.hn-0-7 ens.cs.hn-0-8 ens.cs.hn-0-9 ens.cs.hn-0-10 ens.cs.hn-0-11 ens.cs.hn-0-12 ens.cs.hn-0-15 ens.cs.hn-0-16 ens.cs.hn-0-17 ens.cs.hn-0-18 ens.cs.hn-0-19 ens.cs.hn-0-20 ens.cs.hn-0-21 ens.cs.hn-0-22 ens.cs.hn-0-23 ens.cs.hn-0-24 ens.cs.hn-0-25 ens.cs.hn-0-26 ens.cs.hn-0-27 ens.cs.hn-0-28 ens.cs.hn-0-29 ens.cs.hn-0-30 ens.cs.hn-0-31 ens.cs.hn-0-32 ens.cs.hn-0-33 ens.cs.hn-0-34 ens.cs.hn-0-35 ens.cs.hn-0-36 ens.cs.hn-0-37 ens.cs.hn-0-38 ens.cs.hn-0-39 ens.cs.hn-0-40 ens.cs.hn-0-41 ens.cs.nh-0-2 ens.cs.nh-0-3 ens.cs.nh-0-4 ens.cs.nh-0-5 ens.cs.nh-0-7 ens.cs.nh-0-8 ens.cs.nh-0-9 ens.cs.nh-0-10 ens.cs.nh-0-11 ens.cs.nh-0-12 ens.cs.nh-0-15 ens.cs.nh-0-16 ens.cs.nh-0-17 ens.cs.nh-0-18 ens.cs.nh-0-19 ens.cs.nh-0-20 ens.cs.nh-0-21 ens.cs.nh-0-22 ens.cs.nh-0-23 ens.cs.nh-0-24 ens.cs.nh-0-25 ens.cs.nh-0-26 ens.cs.nh-0-27 ens.cs.nh-0-28 ens.cs.nh-0-29 ens.cs.nh-0-30 ens.cs.nh-0-31 ens.cs.nh-0-32 ens.cs.nh-0-33 ens.cs.nh-0-34 ens.cs.nh-0-35 ens.cs.nh-0-36 ens.cs.nh-0-37 ens.cs.nh-0-38 ens.cs.nh-0-39 ens.cs.nh-0-40 ens.cs.nh-0-41 ens.cs.ca-0-2 ens.cs.ca-0-3 ens.cs.ca-0-4 ens.cs.ca-0-5 ens.cs.ca-0-7 ens.cs.ca-0-8 ens.cs.ca-0-9 ens.cs.ca-0-10 ens.cs.ca-0-11 ens.cs.ca-0-12 ens.cs.ca-0-15 ens.cs.ca-0-16 ens.cs.ca-0-17 ens.cs.ca-0-18 ens.cs.ca-0-19 ens.cs.ca-0-20 ens.cs.ca-0-21 ens.cs.ca-0-22 ens.cs.ca-0-23 ens.cs.ca-0-24 ens.cs.ca-0-25 ens.cs.ca-0-26 ens.cs.ca-0-27 ens.cs.ca-0-28 ens.cs.ca-0-29 ens.cs.ca-0-30 ens.cs.ca-0-31 ens.cs.ca-0-32 ens.cs.ca-0-33 ens.cs.ca-0-34 ens.cs.ca-0-35 ens.cs.ca-0-36 ens.cs.ca-0-37 ens.cs.ca-0-38 ens.cs.ca-0-39 ens.cs.ca-0-40 ens.cs.ca-0-41 ens.cs.cb-0-2 ens.cs.cb-0-3 ens.cs.cb-0-4 ens.cs.cb-0-5 ens.cs.cb-0-7 ens.cs.cb-0-8 ens.cs.cb-0-10 ens.cs.cb-0-11 ens.cs.cb-0-12 ens.cs.cb-0-16 ens.cs.cb-0-17 ens.cs.cb-0-18 ens.cs.cb-0-19 ens.cs.cb-0-20 ens.cs.cb-0-21 ens.cs.cb-0-22 ens.cs.cb-0-23 ens.cs.cb-0-24 ens.cs.cb-0-26 ens.cs.cb-0-27 ens.cs.cb-0-28 ens.cs.cb-0-30 ens.cs.cb-0-34 ens.cs.cb-0-35 ens.cs.cb-0-36 ens.cs.cb-0-39 ens.cs.cb-0-40 ens.cs.co-0-2 ens.cs.co-0-3 ens.cs.co-0-4 ens.cs.co-0-5 ens.cs.co-0-7 ens.cs.co-0-8 ens.cs.co-0-9 ens.cs.co-0-10 ens.cs.co-0-11 ens.cs.co-0-12 ens.cs.co-0-15 ens.cs.co-0-16 ens.cs.co-0-17 ens.cs.co-0-18 ens.cs.co-0-19 ens.cs.co-0-20 ens.cs.co-0-21 ens.cs.co-0-22 ens.cs.co-0-23 ens.cs.co-0-24 ens.cs.co-0-25 ens.cs.co-0-26 ens.cs.co-0-27 ens.cs.co-0-28 ens.cs.co-0-29 ens.cs.co-0-30 ens.cs.co-0-31 ens.cs.co-0-32 ens.cs.co-0-33 ens.cs.co-0-34 ens.cs.co-0-35 ens.cs.co-0-36 ens.cs.co-0-37 ens.cs.co-0-38 ens.cs.co-0-39 ens.cs.co-0-40 ens.cs.co-0-41
PLUMED:   using 206 parameters from inactive actions: 4.420000 4.000000 4.650000 4.320000 4.710000 4.450000 4.600000 4.280000 4.010000 4.390000 4.380000 4.430000 4.120000 4.670000 4.650000 4.310000 4.280000 4.720000 4.060000 4.440000 4.010000 4.380000 4.390000 4.220000 4.230000 4.430000 4.730000 4.220000 4.240000 4.210000 4.260000 8.200000 8.370000 8.240000 8.070000 8.290000 8.360000 8.460000 7.860000 8.290000 8.020000 8.360000 8.340000 8.210000 7.950000 8.200000 8.150000 8.170000 8.290000 8.360000 8.100000 8.480000 8.070000 8.410000 8.280000 8.350000 7.950000 8.120000 8.260000 8.410000 7.990000 8.360000 8.270000 8.680000 8.240000 7.850000 8.350000 8.390000 124.200000 120.400000 121.700000 123.600000 121.600000 116.500000 110.600000 119.900000 122.400000 121.100000 121.400000 123.100000 123.900000 121.500000 124.400000 123.000000 126.100000 119.900000 121.700000 120.600000 111.600000 115.300000 120.400000 121.600000 109.400000 123.400000 120.700000 126.300000 113.000000 121.600000 121.900000 122.800000 114.200000 107.700000 119.700000 126.100000 127.700000 52.550000 56.550000 57.700000 55.620000 53.940000 59.060000 45.190000 58.270000 56.530000 62.720000 55.830000 56.380000 55.060000 61.840000 57.450000 57.300000 52.210000 56.480000 54.040000 62.730000 45.390000 58.400000 53.290000 56.720000 45.030000 52.350000 61.060000 61.190000 45.040000 55.020000 55.060000 62.510000 45.420000 45.040000 61.860000 62.430000 60.790000 19.010000 30.250000 39.490000 30.930000 41.020000 63.590000 38.690000 30.210000 32.320000 32.870000 42.260000 32.940000 40.160000 39.980000 19.310000 30.300000 40.930000 32.110000 63.700000 38.430000 32.530000 19.200000 42.580000 33.040000 32.980000 33.100000 32.600000 177.400000 176.100000 175.300000 175.600000 176.400000 175.200000 174.100000 175.800000 176.200000 176.100000 175.700000 176.300000 176.800000 175.200000 174.800000 174.800000 177.300000 176.200000 176.700000 177.200000 174.600000 174.500000 175.500000 177.300000 173.800000 177.700000 176.500000 176.700000 173.700000 177.100000 176.200000 176.900000 174.800000 173.700000 175.700000 176.100000 175.000000
PLUMED:   added component to this action:  stat.sqdevsum
PLUMED:   added component to this action:  stat.corr
PLUMED:   added component to this action:  stat.slope
PLUMED:   added component to this action:  stat.intercept
PLUMED: Action PRINT
PLUMED:   with label @23
PLUMED:   with stride 500
PLUMED:   with arguments helix.lessthan beta rgyr hydro salt dihcor pbmetad.bias
PLUMED:   on file COLVAR
PLUMED:   with format  %f
PLUMED: Action PRINT
PLUMED:   with label @24
PLUMED:   with stride 500
PLUMED:   with arguments ens.cs.ha-0-2 ens.cs.ha-0-3 ens.cs.ha-0-4 ens.cs.ha-0-5 ens.cs.ha-0-7 ens.cs.ha-0-8 ens.cs.ha-0-10 ens.cs.ha-0-11 ens.cs.ha-0-12 ens.cs.ha-0-15 ens.cs.ha-0-16 ens.cs.ha-0-17 ens.cs.ha-0-18 ens.cs.ha-0-19 ens.cs.ha-0-20 ens.cs.ha-0-21 ens.cs.ha-0-22 ens.cs.ha-0-23 ens.cs.ha-0-24 ens.cs.ha-0-26 ens.cs.ha-0-27 ens.cs.ha-0-28 ens.cs.ha-0-30 ens.cs.ha-0-31 ens.cs.ha-0-32 ens.cs.ha-0-34 ens.cs.ha-0-35 ens.cs.ha-0-36 ens.cs.ha-0-39 ens.cs.ha-0-40 ens.cs.ha-0-41 ens.cs.hn-0-2 ens.cs.hn-0-3 ens.cs.hn-0-4 ens.cs.hn-0-5 ens.cs.hn-0-7 ens.cs.hn-0-8 ens.cs.hn-0-9 ens.cs.hn-0-10 ens.cs.hn-0-11 ens.cs.hn-0-12 ens.cs.hn-0-15 ens.cs.hn-0-16 ens.cs.hn-0-17 ens.cs.hn-0-18 ens.cs.hn-0-19 ens.cs.hn-0-20 ens.cs.hn-0-21 ens.cs.hn-0-22 ens.cs.hn-0-23 ens.cs.hn-0-24 ens.cs.hn-0-25 ens.cs.hn-0-26 ens.cs.hn-0-27 ens.cs.hn-0-28 ens.cs.hn-0-29 ens.cs.hn-0-30 ens.cs.hn-0-31 ens.cs.hn-0-32 ens.cs.hn-0-33 ens.cs.hn-0-34 ens.cs.hn-0-35 ens.cs.hn-0-36 ens.cs.hn-0-37 ens.cs.hn-0-38 ens.cs.hn-0-39 ens.cs.hn-0-40 ens.cs.hn-0-41 ens.cs.nh-0-2 ens.cs.nh-0-3 ens.cs.nh-0-4 ens.cs.nh-0-5 ens.cs.nh-0-7 ens.cs.nh-0-8 ens.cs.nh-0-9 ens.cs.nh-0-10 ens.cs.nh-0-11 ens.cs.nh-0-12 ens.cs.nh-0-15 ens.cs.nh-0-16 ens.cs.nh-0-17 ens.cs.nh-0-18 ens.cs.nh-0-19 ens.cs.nh-0-20 ens.cs.nh-0-21 ens.cs.nh-0-22 ens.cs.nh-0-23 ens.cs.nh-0-24 ens.cs.nh-0-25 ens.cs.nh-0-26 ens.cs.nh-0-27 ens.cs.nh-0-28 ens.cs.nh-0-29 ens.cs.nh-0-30 ens.cs.nh-0-31 ens.cs.nh-0-32 ens.cs.nh-0-33 ens.cs.nh-0-34 ens.cs.nh-0-35 ens.cs.nh-0-36 ens.cs.nh-0-37 ens.cs.nh-0-38 ens.cs.nh-0-39 ens.cs.nh-0-40 ens.cs.nh-0-41 ens.cs.ca-0-2 ens.cs.ca-0-3 ens.cs.ca-0-4 ens.cs.ca-0-5 ens.cs.ca-0-7 ens.cs.ca-0-8 ens.cs.ca-0-9 ens.cs.ca-0-10 ens.cs.ca-0-11 ens.cs.ca-0-12 ens.cs.ca-0-15 ens.cs.ca-0-16 ens.cs.ca-0-17 ens.cs.ca-0-18 ens.cs.ca-0-19 ens.cs.ca-0-20 ens.cs.ca-0-21 ens.cs.ca-0-22 ens.cs.ca-0-23 ens.cs.ca-0-24 ens.cs.ca-0-25 ens.cs.ca-0-26 ens.cs.ca-0-27 ens.cs.ca-0-28 ens.cs.ca-0-29 ens.cs.ca-0-30 ens.cs.ca-0-31 ens.cs.ca-0-32 ens.cs.ca-0-33 ens.cs.ca-0-34 ens.cs.ca-0-35 ens.cs.ca-0-36 ens.cs.ca-0-37 ens.cs.ca-0-38 ens.cs.ca-0-39 ens.cs.ca-0-40 ens.cs.ca-0-41 ens.cs.cb-0-2 ens.cs.cb-0-3 ens.cs.cb-0-4 ens.cs.cb-0-5 ens.cs.cb-0-7 ens.cs.cb-0-8 ens.cs.cb-0-10 ens.cs.cb-0-11 ens.cs.cb-0-12 ens.cs.cb-0-16 ens.cs.cb-0-17 ens.cs.cb-0-18 ens.cs.cb-0-19 ens.cs.cb-0-20 ens.cs.cb-0-21 ens.cs.cb-0-22 ens.cs.cb-0-23 ens.cs.cb-0-24 ens.cs.cb-0-26 ens.cs.cb-0-27 ens.cs.cb-0-28 ens.cs.cb-0-30 ens.cs.cb-0-34 ens.cs.cb-0-35 ens.cs.cb-0-36 ens.cs.cb-0-39 ens.cs.cb-0-40 ens.cs.co-0-2 ens.cs.co-0-3 ens.cs.co-0-4 ens.cs.co-0-5 ens.cs.co-0-7 ens.cs.co-0-8 ens.cs.co-0-9 ens.cs.co-0-10 ens.cs.co-0-11 ens.cs.co-0-12 ens.cs.co-0-15 ens.cs.co-0-16 ens.cs.co-0-17 ens.cs.co-0-18 ens.cs.co-0-19 ens.cs.co-0-20 ens.cs.co-0-21 ens.cs.co-0-22 ens.cs.co-0-23 ens.cs.co-0-24 ens.cs.co-0-25 ens.cs.co-0-26 ens.cs.co-0-27 ens.cs.co-0-28 ens.cs.co-0-29 ens.cs.co-0-30 ens.cs.co-0-31 ens.cs.co-0-32 ens.cs.co-0-33 ens.cs.co-0-34 ens.cs.co-0-35 ens.cs.co-0-36 ens.cs.co-0-37 ens.cs.co-0-38 ens.cs.co-0-39 ens.cs.co-0-40 ens.cs.co-0-41 stat.sqdevsum stat.corr stat.slope stat.intercept
PLUMED:   on file STATS
PLUMED:   with format  %f
PLUMED: Action PRINT
PLUMED:   with label @25
PLUMED:   with stride 500
PLUMED:   with arguments cs_ha.bias cs_ha.biasDer cs_ha.weight cs_ha.neff cs_ha.acceptSigma cs_ha.sigmaMean cs_ha.sigma
PLUMED:   on file BAYES.HA
PLUMED:   with format  %f
PLUMED: Action PRINT
PLUMED:   with label @26
PLUMED:   with stride 500
PLUMED:   with arguments cs_hn.bias cs_hn.biasDer cs_hn.weight cs_hn.neff cs_hn.acceptSigma cs_hn.sigmaMean cs_hn.sigma
PLUMED:   on file BAYES.HN
PLUMED:   with format  %f
PLUMED: Action PRINT
PLUMED:   with label @27
PLUMED:   with stride 500
PLUMED:   with arguments cs_nh.bias cs_nh.biasDer cs_nh.weight cs_nh.neff cs_nh.acceptSigma cs_nh.sigmaMean cs_nh.sigma
PLUMED:   on file BAYES.NH
PLUMED:   with format  %f
PLUMED: Action PRINT
PLUMED:   with label @28
PLUMED:   with stride 500
PLUMED:   with arguments cs_ca.bias cs_ca.biasDer cs_ca.weight cs_ca.neff cs_ca.acceptSigma cs_ca.sigmaMean cs_ca.sigma
PLUMED:   on file BAYES.CA
PLUMED:   with format  %f
PLUMED: Action PRINT
PLUMED:   with label @29
PLUMED:   with stride 500
PLUMED:   with arguments cs_cb.bias cs_cb.biasDer cs_cb.weight cs_cb.neff cs_cb.acceptSigma cs_cb.sigmaMean cs_cb.sigma
PLUMED:   on file BAYES.CB
PLUMED:   with format  %f
PLUMED: Action PRINT
PLUMED:   with label @30
PLUMED:   with stride 500
PLUMED:   with arguments cs_co.bias cs_co.biasDer cs_co.weight cs_co.neff cs_co.acceptSigma cs_co.sigmaMean cs_co.sigma
PLUMED:   on file BAYES.CO
PLUMED:   with format  %f
PLUMED: Action ENDPLUMED
PLUMED:   with label @31
PLUMED: END FILE: ../../../plumed/plumed.dat
PLUMED: Timestep: 0.002000
PLUMED: KbT: 2.311421
PLUMED: Relevant bibliography:
PLUMED:   [1] The PLUMED consortium, Nat. Methods 16, 670 (2019)
PLUMED:   [2] Tribello, Bonomi, Branduardi, Camilloni, and Bussi, Comput. Phys. Commun. 185, 604 (2014)
PLUMED:   [3] Pietrucci and Laio, J. Chem. Theory Comput. 5, 2197 (2009)
PLUMED:   [4] Kohlhoff K, Robustelli P, Cavalli A, Salvatella A, Vendruscolo M, J. Am. Chem. Soc. 131, 13894 (2009)
PLUMED:   [5] Camilloni C, Robustelli P, De Simone A, Cavalli A, Vendruscolo M, J. Am. Chem. Soc. 134, 3968 (2012)
PLUMED:   [6] Bonomi M, Camilloni C, Bioinformatics, 33, 3999 (2017)
PLUMED:   [7] Pfaendtner and Bonomi. J. Chem. Theory Comput. 11, 5062 (2015)
PLUMED:   [8] Raiteri, Laio, Gervasio, Micheletti, and Parrinello, J. Phys. Chem. B 110, 3533 (2006)
PLUMED:   [9] Bonomi, Camilloni, Cavalli, Vendruscolo, Sci. Adv. 2, e150117 (2016)
PLUMED:   [10] Bonomi, Camilloni, Vendruscolo, Sci. Rep. 6, 31232 (2016)
PLUMED:   [11] Loehr, Jussupow, Camilloni, J. Chem. Phys. 146, 165102 (2017)
PLUMED:   [12] Bonomi, Camilloni, Bioinformatics, 33, 3999 (2017)
PLUMED: Please read and cite where appropriate!
PLUMED: Finished setup
Started mdrun on rank 0 Sun Aug  6 04:05:49 2023

DD  step 1677679 load imb.: force  0.0%  pme mesh/force 0.591

DD  step 1679999 load imb.: force  0.0%  pme mesh/force 0.600
           Step           Time
        1680000     3360.00000

   Energies (kJ/mol)
           Bond            U-B    Proper Dih.  Improper Dih.      CMAP Dih.
    4.82482e+02    1.21075e+03    2.66510e+02    9.01673e+01   -1.18181e+02
          LJ-14     Coulomb-14        LJ (SR)  Disper. corr.   Coulomb (SR)
    4.25627e+02    1.05788e+04    7.56719e+04   -2.48939e+03   -5.74512e+05
    1.44458e+03   -4.86948e+05    8.33779e+04   -4.03570e+05   -3.86914e+05
    Temperature Pres. DC (bar) Pressure (bar)   Constr. rmsd
    2.79391e+02   -1.17030e+02    5.98633e+01    1.00640e-08

	<====  A V E R A G E S  ====>

	Statistics over 1994601 steps using 79784 frames

   Energies (kJ/mol)
           Bond            U-B    Proper Dih.  Improper Dih.      CMAP Dih.
    4.73408e+02    1.29556e+03    2.31904e+02    8.12210e+01   -1.26969e+02
          LJ-14     Coulomb-14        LJ (SR)  Disper. corr.   Coulomb (SR)
    4.46960e+02    1.05416e+04    7.59181e+04   -2.48216e+03   -5.75443e+05
   Coul. recip.      Potential    Kinetic En.   Total Energy  Conserved En.
    1.47143e+03   -4.87592e+05    8.29680e+04   -4.04624e+05   -3.78010e+05
    Temperature Pres. DC (bar) Pressure (bar)   Constr. rmsd
    2.78018e+02   -1.16352e+02    9.93478e-01    0.00000e+00

          Box-X          Box-Y          Box-Z
    7.94403e+00    7.94403e+00    5.61727e+00

   Total Virial (kJ/mol)
    2.76323e+04    1.23371e+00   -1.09194e+01
   -3.27386e-01    2.76624e+04    7.16758e+00
   -1.04547e+01    7.16758e+00    2.76459e+04

   Pressure (bar)
    1.70126e+00   -3.58943e-01    1.02753e+00
   -2.12680e-01   -1.24518e-01   -2.76907e-02
    9.83985e-01   -2.76907e-02    1.40370e+00
